BEGIN Configuration File: anynet_config
// $Id: singleconfig 1535 2009-09-16 16:21:01Z dub $

// Copyright (c) 2007-2009, Trustees of The Leland Stanford Junior University
// All rights reserved.
// 
// Redistribution and use in source and binary forms, with or without 
// modification, are permitted provided that the following conditions are met:
// 
// Redistributions of source code must retain the above copyright notice, this 
// list of conditions and the following disclaimer.
// Redistributions in binary form must reproduce the above copyright notice, 
// this list of conditions and the following disclaimer in the documentation 
// and/or other materials provided with the distribution.
// Neither the name of the Stanford University nor the names of its contributors
// may be used to endorse or promote products derived from this software without
// specific prior written permission.
// 
// THIS SOFTWARE IS PROVIDED BY THE COPYRIGHT HOLDERS AND CONTRIBUTORS "AS IS" 
// AND ANY EXPRESS OR IMPLIED WARRANTIES, INCLUDING, BUT NOT LIMITED TO, THE 
// IMPLIED WARRANTIES OF MERCHANTABILITY AND FITNESS FOR A PARTICULAR PURPOSE 
// ARE DISCLAIMED. IN NO EVENT SHALL THE COPYRIGHT OWNER OR CONTRIBUTORS BE 
// LIABLE FOR ANY DIRECT, INDIRECT, INCIDENTAL, SPECIAL, EXEMPLARY, OR 
// CONSEQUENTIAL DAMAGES (INCLUDING, BUT NOT LIMITED TO, PROCUREMENT OF 
// SUBSTITUTE GOODS OR SERVICES; LOSS OF USE, DATA, OR PROFITS; OR BUSINESS 
// INTERRUPTION) HOWEVER CAUSED AND ON ANY THEORY OF LIABILITY, WHETHER IN 
// CONTRACT, STRICT LIABILITY, OR TORT (INCLUDING NEGLIGENCE OR OTHERWISE) 
// ARISING IN ANY WAY OUT OF THE USE OF THIS SOFTWARE, EVEN IF ADVISED OF THE 
// POSSIBILITY OF SUCH DAMAGE.

//A single cross 10X10 cross bar under injection mode

topology = anynet;
network_file = anynet_file;

//single flit   packets
packet_size = 1;

//7 cycles delay in each input-queued router
credit_delay   = 2;
routing_delay  = 2;
vc_alloc_delay = 1;
sw_alloc_delay = 1;
st_final_delay = 1;

// Input and output a crossbar is 1, and the speed of internal routers speedup of is 2 times of the channel transmission rate.
input_speedup     = 1;
output_speedup    = 1;
internal_speedup  = 2.0;

//The buffer of each port has 256 policy is that each VC has 5 flits in privacy and  the others are shared by all VCs.
vc_buf_size = 256;
private_buf_size = 5;
wait_for_tail_credit = 0;

//
// Router architecture
//
vc_allocator = separable_input_first;
sw_allocator = separable_input_first;
alloc_iters  = 1;

warmup_periods = 3;
sim_count          = 1;

sample_period  = 10000;

routing_function = min;
num_vcs     = 2;

priority = none;
traffic       = uniform;

injection_rate = 0.8;

injection_rate_uses_flits=1;


k  = 4;
n  = 1;

watch_out=-;;END Configuration File: anynet_config
------------config-------------------
alloc_iters 1
batch_count 1
batch_size 1000
buf_size -1
c 1
channel_sweep 0
channel_width 128
class_priority 0
classes 1
credit_delay 2
deadlock_warn_timeout 256
fail_seed 0
feedback_aging_scale 1
feedback_offset 0
hold_switch_for_packet 0
in_ports 5
include_queuing 1
injection_rate_uses_flits 1
input_speedup 1
k 4
link_failures 0
max_held_slots -1
max_outstanding_requests 0
max_samples 10
measure_stats 1
n 1
noq 0
num_vcs 2
out_ports 5
output_buffer_size -1
output_delay 0
output_speedup 1
packet_size 1
packet_size_rate 1
pair_stats 0
perm_seed 0
print_activity 0
print_csv_results 0
private_buf_end_vc -1
private_buf_size 5
private_buf_start_vc -1
private_bufs -1
read_reply_begin_vc 8
read_reply_end_vc 13
read_reply_size 1
read_reply_subnet 0
read_request_begin_vc 0
read_request_end_vc 5
read_request_size 1
read_request_subnet 0
routing_delay 2
sample_period 10000
seed 0
sim_count 1
sim_power 0
spec_check_cred 1
spec_check_elig 1
spec_mask_by_reqs 0
speculative 0
st_final_delay 1
st_prepare_delay 0
subnets 1
sw_alloc_delay 1
use_noc_latency 1
use_read_write 0
vc_alloc_delay 1
vc_buf_size 256
vc_busy_when_full 0
vc_prioritize_empty 0
vc_priority_donation 0
vc_shuffle_requests 0
vct 0
viewer_trace 0
wait_for_tail_credit 0
warmup_periods 3
write_reply_begin_vc 10
write_reply_end_vc 15
write_reply_size 1
write_reply_subnet 0
write_request_begin_vc 2
write_request_end_vc 7
write_request_size 1
write_request_subnet 0
x 8
xr 1
y 8
yr 1
acc_stopping_thres 
acc_warmup_thres 
arb_type round_robin
buffer_policy private
channel_file 
class_priority 
fail_seed 
injection_process bernoulli
injection_rate 
latency_thres 
measure_stats 
network_file anynet_file
packet_size 
packet_size_rate 
perm_seed 
power_output_file pwr_tmp
priority none
private_buf_end_vc 
private_buf_size 
private_buf_start_vc 
read_reply_size 
read_request_size 
router iq
routing_function min
seed 
sent_packets_out 
sim_type latency
spec_sw_allocator prio
stats_out 
stopping_thres 
sw_allocator separable_input_first
tech_file 
topology anynet
traffic uniform
use_read_write 
vc_allocator separable_input_first
warmup_thres 
watch_file 
watch_flits 
watch_out -
watch_packets 
watch_transactions 
write_fraction 
write_reply_size 
write_request_size 
acc_stopping_thres 0.05
acc_warmup_thres 0.05
burst_alpha 0.5
burst_beta 0.5
burst_r1 -1
injection_rate 0.8
internal_speedup 2
latency_thres 500
stopping_thres 0.05
warmup_thres 0.05
write_fraction 0.5
========================Network File Parsed=================
******************node listing**********************
Node 0	Router 0
Node 1	Router 1
Node 2	Router 2
Node 3	Router 3
Node 4	Router 4
Node 5	Router 5
Node 6	Router 6
Node 7	Router 7
Node 8	Router 8
Node 9	Router 9
Node 10	Router 10
Node 11	Router 11
Node 12	Router 12
Node 13	Router 13
Node 14	Router 14
Node 15	Router 15
Node 16	Router 16
Node 17	Router 17
Node 18	Router 18
Node 19	Router 19
Node 20	Router 20
Node 21	Router 21
Node 22	Router 22
Node 23	Router 23
Node 24	Router 24
Node 25	Router 25
Node 26	Router 26
Node 27	Router 27
Node 28	Router 28
Node 29	Router 29
Node 30	Router 30
Node 31	Router 31
Node 32	Router 32
Node 33	Router 33
Node 34	Router 34
Node 35	Router 35
Node 36	Router 36
Node 37	Router 37
Node 38	Router 38
Node 39	Router 39
Node 40	Router 40
Node 41	Router 41
Node 42	Router 42
Node 43	Router 43
Node 44	Router 44
Node 45	Router 45
Node 46	Router 46
Node 47	Router 47
Node 48	Router 48
Node 49	Router 49
Node 50	Router 50
Node 51	Router 51
Node 52	Router 52
Node 53	Router 53
Node 54	Router 54
Node 55	Router 55
Node 56	Router 56
Node 57	Router 57
Node 58	Router 58
Node 59	Router 59
Node 60	Router 60
Node 61	Router 61
Node 62	Router 62
Node 63	Router 63
Node 64	Router 64
Node 65	Router 65
Node 66	Router 66
Node 67	Router 67
Node 68	Router 68
Node 69	Router 69
Node 70	Router 70
Node 71	Router 71
Node 72	Router 72
Node 73	Router 73
Node 74	Router 74
Node 75	Router 75
Node 76	Router 76
Node 77	Router 77
Node 78	Router 78
Node 79	Router 79
Node 80	Router 80

****************router to node listing*************
Router 0
	 Node 0 lat 1
Router 1
	 Node 1 lat 1
Router 2
	 Node 2 lat 1
Router 3
	 Node 3 lat 1
Router 4
	 Node 4 lat 1
Router 5
	 Node 5 lat 1
Router 6
	 Node 6 lat 1
Router 7
	 Node 7 lat 1
Router 8
	 Node 8 lat 1
Router 9
	 Node 9 lat 1
Router 10
	 Node 10 lat 1
Router 11
	 Node 11 lat 1
Router 12
	 Node 12 lat 1
Router 13
	 Node 13 lat 1
Router 14
	 Node 14 lat 1
Router 15
	 Node 15 lat 1
Router 16
	 Node 16 lat 1
Router 17
	 Node 17 lat 1
Router 18
	 Node 18 lat 1
Router 19
	 Node 19 lat 1
Router 20
	 Node 20 lat 1
Router 21
	 Node 21 lat 1
Router 22
	 Node 22 lat 1
Router 23
	 Node 23 lat 1
Router 24
	 Node 24 lat 1
Router 25
	 Node 25 lat 1
Router 26
	 Node 26 lat 1
Router 27
	 Node 27 lat 1
Router 28
	 Node 28 lat 1
Router 29
	 Node 29 lat 1
Router 30
	 Node 30 lat 1
Router 31
	 Node 31 lat 1
Router 32
	 Node 32 lat 1
Router 33
	 Node 33 lat 1
Router 34
	 Node 34 lat 1
Router 35
	 Node 35 lat 1
Router 36
	 Node 36 lat 1
Router 37
	 Node 37 lat 1
Router 38
	 Node 38 lat 1
Router 39
	 Node 39 lat 1
Router 40
	 Node 40 lat 1
Router 41
	 Node 41 lat 1
Router 42
	 Node 42 lat 1
Router 43
	 Node 43 lat 1
Router 44
	 Node 44 lat 1
Router 45
	 Node 45 lat 1
Router 46
	 Node 46 lat 1
Router 47
	 Node 47 lat 1
Router 48
	 Node 48 lat 1
Router 49
	 Node 49 lat 1
Router 50
	 Node 50 lat 1
Router 51
	 Node 51 lat 1
Router 52
	 Node 52 lat 1
Router 53
	 Node 53 lat 1
Router 54
	 Node 54 lat 1
Router 55
	 Node 55 lat 1
Router 56
	 Node 56 lat 1
Router 57
	 Node 57 lat 1
Router 58
	 Node 58 lat 1
Router 59
	 Node 59 lat 1
Router 60
	 Node 60 lat 1
Router 61
	 Node 61 lat 1
Router 62
	 Node 62 lat 1
Router 63
	 Node 63 lat 1
Router 64
	 Node 64 lat 1
Router 65
	 Node 65 lat 1
Router 66
	 Node 66 lat 1
Router 67
	 Node 67 lat 1
Router 68
	 Node 68 lat 1
Router 69
	 Node 69 lat 1
Router 70
	 Node 70 lat 1
Router 71
	 Node 71 lat 1
Router 72
	 Node 72 lat 1
Router 73
	 Node 73 lat 1
Router 74
	 Node 74 lat 1
Router 75
	 Node 75 lat 1
Router 76
	 Node 76 lat 1
Router 77
	 Node 77 lat 1
Router 78
	 Node 78 lat 1
Router 79
	 Node 79 lat 1
Router 80
	 Node 80 lat 1

*****************router to router listing************
Router 0
	 Router 1 lat 1
	 Router 2 lat 1
	 Router 3 lat 1
	 Router 4 lat 1
	 Router 5 lat 1
	 Router 6 lat 1
	 Router 7 lat 1
	 Router 8 lat 1
	 Router 9 lat 1
	 Router 10 lat 1
	 Router 11 lat 1
	 Router 12 lat 1
	 Router 13 lat 1
	 Router 14 lat 1
	 Router 15 lat 1
	 Router 16 lat 1
	 Router 17 lat 1
	 Router 18 lat 1
	 Router 19 lat 1
	 Router 20 lat 1
	 Router 21 lat 1
	 Router 22 lat 1
	 Router 23 lat 1
	 Router 24 lat 1
	 Router 25 lat 1
	 Router 26 lat 1
	 Router 27 lat 1
	 Router 28 lat 1
	 Router 29 lat 1
	 Router 30 lat 1
	 Router 31 lat 1
	 Router 32 lat 1
	 Router 33 lat 1
	 Router 34 lat 1
	 Router 35 lat 1
	 Router 36 lat 1
	 Router 37 lat 1
	 Router 38 lat 1
	 Router 39 lat 1
	 Router 40 lat 1
	 Router 41 lat 1
	 Router 42 lat 1
	 Router 43 lat 1
	 Router 44 lat 1
	 Router 45 lat 1
	 Router 46 lat 1
	 Router 47 lat 1
	 Router 48 lat 1
	 Router 49 lat 1
	 Router 50 lat 1
	 Router 51 lat 1
	 Router 52 lat 1
	 Router 53 lat 1
	 Router 54 lat 1
	 Router 55 lat 1
	 Router 56 lat 1
	 Router 57 lat 1
	 Router 58 lat 1
	 Router 59 lat 1
	 Router 60 lat 1
	 Router 61 lat 1
	 Router 62 lat 1
	 Router 63 lat 1
	 Router 64 lat 1
	 Router 65 lat 1
	 Router 66 lat 1
	 Router 67 lat 1
	 Router 68 lat 1
	 Router 69 lat 1
	 Router 70 lat 1
	 Router 71 lat 1
	 Router 72 lat 1
	 Router 73 lat 1
	 Router 74 lat 1
	 Router 75 lat 1
	 Router 76 lat 1
	 Router 77 lat 1
	 Router 78 lat 1
	 Router 79 lat 1
	 Router 80 lat 1
Router 1
	 Router 0 lat 1
	 Router 2 lat 1
	 Router 3 lat 1
	 Router 4 lat 1
	 Router 5 lat 1
	 Router 6 lat 1
	 Router 7 lat 1
	 Router 8 lat 1
	 Router 9 lat 1
	 Router 10 lat 1
	 Router 11 lat 1
	 Router 12 lat 1
	 Router 13 lat 1
	 Router 14 lat 1
	 Router 15 lat 1
	 Router 16 lat 1
	 Router 17 lat 1
	 Router 18 lat 1
	 Router 19 lat 1
	 Router 20 lat 1
	 Router 21 lat 1
	 Router 22 lat 1
	 Router 23 lat 1
	 Router 24 lat 1
	 Router 25 lat 1
	 Router 26 lat 1
	 Router 27 lat 1
	 Router 28 lat 1
	 Router 29 lat 1
	 Router 30 lat 1
	 Router 31 lat 1
	 Router 32 lat 1
	 Router 33 lat 1
	 Router 34 lat 1
	 Router 35 lat 1
	 Router 36 lat 1
	 Router 37 lat 1
	 Router 38 lat 1
	 Router 39 lat 1
	 Router 40 lat 1
	 Router 41 lat 1
	 Router 42 lat 1
	 Router 43 lat 1
	 Router 44 lat 1
	 Router 45 lat 1
	 Router 46 lat 1
	 Router 47 lat 1
	 Router 48 lat 1
	 Router 49 lat 1
	 Router 50 lat 1
	 Router 51 lat 1
	 Router 52 lat 1
	 Router 53 lat 1
	 Router 54 lat 1
	 Router 55 lat 1
	 Router 56 lat 1
	 Router 57 lat 1
	 Router 58 lat 1
	 Router 59 lat 1
	 Router 60 lat 1
	 Router 61 lat 1
	 Router 62 lat 1
	 Router 63 lat 1
	 Router 64 lat 1
	 Router 65 lat 1
	 Router 66 lat 1
	 Router 67 lat 1
	 Router 68 lat 1
	 Router 69 lat 1
	 Router 70 lat 1
	 Router 71 lat 1
	 Router 72 lat 1
	 Router 73 lat 1
	 Router 74 lat 1
	 Router 75 lat 1
	 Router 76 lat 1
	 Router 77 lat 1
	 Router 78 lat 1
	 Router 79 lat 1
	 Router 80 lat 1
Router 2
	 Router 0 lat 1
	 Router 1 lat 1
	 Router 3 lat 1
	 Router 4 lat 1
	 Router 5 lat 1
	 Router 6 lat 1
	 Router 7 lat 1
	 Router 8 lat 1
	 Router 9 lat 1
	 Router 10 lat 1
	 Router 11 lat 1
	 Router 12 lat 1
	 Router 13 lat 1
	 Router 14 lat 1
	 Router 15 lat 1
	 Router 16 lat 1
	 Router 17 lat 1
	 Router 18 lat 1
	 Router 19 lat 1
	 Router 20 lat 1
	 Router 21 lat 1
	 Router 22 lat 1
	 Router 23 lat 1
	 Router 24 lat 1
	 Router 25 lat 1
	 Router 26 lat 1
	 Router 27 lat 1
	 Router 28 lat 1
	 Router 29 lat 1
	 Router 30 lat 1
	 Router 31 lat 1
	 Router 32 lat 1
	 Router 33 lat 1
	 Router 34 lat 1
	 Router 35 lat 1
	 Router 36 lat 1
	 Router 37 lat 1
	 Router 38 lat 1
	 Router 39 lat 1
	 Router 40 lat 1
	 Router 41 lat 1
	 Router 42 lat 1
	 Router 43 lat 1
	 Router 44 lat 1
	 Router 45 lat 1
	 Router 46 lat 1
	 Router 47 lat 1
	 Router 48 lat 1
	 Router 49 lat 1
	 Router 50 lat 1
	 Router 51 lat 1
	 Router 52 lat 1
	 Router 53 lat 1
	 Router 54 lat 1
	 Router 55 lat 1
	 Router 56 lat 1
	 Router 57 lat 1
	 Router 58 lat 1
	 Router 59 lat 1
	 Router 60 lat 1
	 Router 61 lat 1
	 Router 62 lat 1
	 Router 63 lat 1
	 Router 64 lat 1
	 Router 65 lat 1
	 Router 66 lat 1
	 Router 67 lat 1
	 Router 68 lat 1
	 Router 69 lat 1
	 Router 70 lat 1
	 Router 71 lat 1
	 Router 72 lat 1
	 Router 73 lat 1
	 Router 74 lat 1
	 Router 75 lat 1
	 Router 76 lat 1
	 Router 77 lat 1
	 Router 78 lat 1
	 Router 79 lat 1
	 Router 80 lat 1
Router 3
	 Router 0 lat 1
	 Router 1 lat 1
	 Router 2 lat 1
	 Router 4 lat 1
	 Router 5 lat 1
	 Router 6 lat 1
	 Router 7 lat 1
	 Router 8 lat 1
	 Router 9 lat 1
	 Router 10 lat 1
	 Router 11 lat 1
	 Router 12 lat 1
	 Router 13 lat 1
	 Router 14 lat 1
	 Router 15 lat 1
	 Router 16 lat 1
	 Router 17 lat 1
	 Router 18 lat 1
	 Router 19 lat 1
	 Router 20 lat 1
	 Router 21 lat 1
	 Router 22 lat 1
	 Router 23 lat 1
	 Router 24 lat 1
	 Router 25 lat 1
	 Router 26 lat 1
	 Router 27 lat 1
	 Router 28 lat 1
	 Router 29 lat 1
	 Router 30 lat 1
	 Router 31 lat 1
	 Router 32 lat 1
	 Router 33 lat 1
	 Router 34 lat 1
	 Router 35 lat 1
	 Router 36 lat 1
	 Router 37 lat 1
	 Router 38 lat 1
	 Router 39 lat 1
	 Router 40 lat 1
	 Router 41 lat 1
	 Router 42 lat 1
	 Router 43 lat 1
	 Router 44 lat 1
	 Router 45 lat 1
	 Router 46 lat 1
	 Router 47 lat 1
	 Router 48 lat 1
	 Router 49 lat 1
	 Router 50 lat 1
	 Router 51 lat 1
	 Router 52 lat 1
	 Router 53 lat 1
	 Router 54 lat 1
	 Router 55 lat 1
	 Router 56 lat 1
	 Router 57 lat 1
	 Router 58 lat 1
	 Router 59 lat 1
	 Router 60 lat 1
	 Router 61 lat 1
	 Router 62 lat 1
	 Router 63 lat 1
	 Router 64 lat 1
	 Router 65 lat 1
	 Router 66 lat 1
	 Router 67 lat 1
	 Router 68 lat 1
	 Router 69 lat 1
	 Router 70 lat 1
	 Router 71 lat 1
	 Router 72 lat 1
	 Router 73 lat 1
	 Router 74 lat 1
	 Router 75 lat 1
	 Router 76 lat 1
	 Router 77 lat 1
	 Router 78 lat 1
	 Router 79 lat 1
	 Router 80 lat 1
Router 4
	 Router 0 lat 1
	 Router 1 lat 1
	 Router 2 lat 1
	 Router 3 lat 1
	 Router 5 lat 1
	 Router 6 lat 1
	 Router 7 lat 1
	 Router 8 lat 1
	 Router 9 lat 1
	 Router 10 lat 1
	 Router 11 lat 1
	 Router 12 lat 1
	 Router 13 lat 1
	 Router 14 lat 1
	 Router 15 lat 1
	 Router 16 lat 1
	 Router 17 lat 1
	 Router 18 lat 1
	 Router 19 lat 1
	 Router 20 lat 1
	 Router 21 lat 1
	 Router 22 lat 1
	 Router 23 lat 1
	 Router 24 lat 1
	 Router 25 lat 1
	 Router 26 lat 1
	 Router 27 lat 1
	 Router 28 lat 1
	 Router 29 lat 1
	 Router 30 lat 1
	 Router 31 lat 1
	 Router 32 lat 1
	 Router 33 lat 1
	 Router 34 lat 1
	 Router 35 lat 1
	 Router 36 lat 1
	 Router 37 lat 1
	 Router 38 lat 1
	 Router 39 lat 1
	 Router 40 lat 1
	 Router 41 lat 1
	 Router 42 lat 1
	 Router 43 lat 1
	 Router 44 lat 1
	 Router 45 lat 1
	 Router 46 lat 1
	 Router 47 lat 1
	 Router 48 lat 1
	 Router 49 lat 1
	 Router 50 lat 1
	 Router 51 lat 1
	 Router 52 lat 1
	 Router 53 lat 1
	 Router 54 lat 1
	 Router 55 lat 1
	 Router 56 lat 1
	 Router 57 lat 1
	 Router 58 lat 1
	 Router 59 lat 1
	 Router 60 lat 1
	 Router 61 lat 1
	 Router 62 lat 1
	 Router 63 lat 1
	 Router 64 lat 1
	 Router 65 lat 1
	 Router 66 lat 1
	 Router 67 lat 1
	 Router 68 lat 1
	 Router 69 lat 1
	 Router 70 lat 1
	 Router 71 lat 1
	 Router 72 lat 1
	 Router 73 lat 1
	 Router 74 lat 1
	 Router 75 lat 1
	 Router 76 lat 1
	 Router 77 lat 1
	 Router 78 lat 1
	 Router 79 lat 1
	 Router 80 lat 1
Router 5
	 Router 0 lat 1
	 Router 1 lat 1
	 Router 2 lat 1
	 Router 3 lat 1
	 Router 4 lat 1
	 Router 6 lat 1
	 Router 7 lat 1
	 Router 8 lat 1
	 Router 9 lat 1
	 Router 10 lat 1
	 Router 11 lat 1
	 Router 12 lat 1
	 Router 13 lat 1
	 Router 14 lat 1
	 Router 15 lat 1
	 Router 16 lat 1
	 Router 17 lat 1
	 Router 18 lat 1
	 Router 19 lat 1
	 Router 20 lat 1
	 Router 21 lat 1
	 Router 22 lat 1
	 Router 23 lat 1
	 Router 24 lat 1
	 Router 25 lat 1
	 Router 26 lat 1
	 Router 27 lat 1
	 Router 28 lat 1
	 Router 29 lat 1
	 Router 30 lat 1
	 Router 31 lat 1
	 Router 32 lat 1
	 Router 33 lat 1
	 Router 34 lat 1
	 Router 35 lat 1
	 Router 36 lat 1
	 Router 37 lat 1
	 Router 38 lat 1
	 Router 39 lat 1
	 Router 40 lat 1
	 Router 41 lat 1
	 Router 42 lat 1
	 Router 43 lat 1
	 Router 44 lat 1
	 Router 45 lat 1
	 Router 46 lat 1
	 Router 47 lat 1
	 Router 48 lat 1
	 Router 49 lat 1
	 Router 50 lat 1
	 Router 51 lat 1
	 Router 52 lat 1
	 Router 53 lat 1
	 Router 54 lat 1
	 Router 55 lat 1
	 Router 56 lat 1
	 Router 57 lat 1
	 Router 58 lat 1
	 Router 59 lat 1
	 Router 60 lat 1
	 Router 61 lat 1
	 Router 62 lat 1
	 Router 63 lat 1
	 Router 64 lat 1
	 Router 65 lat 1
	 Router 66 lat 1
	 Router 67 lat 1
	 Router 68 lat 1
	 Router 69 lat 1
	 Router 70 lat 1
	 Router 71 lat 1
	 Router 72 lat 1
	 Router 73 lat 1
	 Router 74 lat 1
	 Router 75 lat 1
	 Router 76 lat 1
	 Router 77 lat 1
	 Router 78 lat 1
	 Router 79 lat 1
	 Router 80 lat 1
Router 6
	 Router 0 lat 1
	 Router 1 lat 1
	 Router 2 lat 1
	 Router 3 lat 1
	 Router 4 lat 1
	 Router 5 lat 1
	 Router 7 lat 1
	 Router 8 lat 1
	 Router 9 lat 1
	 Router 10 lat 1
	 Router 11 lat 1
	 Router 12 lat 1
	 Router 13 lat 1
	 Router 14 lat 1
	 Router 15 lat 1
	 Router 16 lat 1
	 Router 17 lat 1
	 Router 18 lat 1
	 Router 19 lat 1
	 Router 20 lat 1
	 Router 21 lat 1
	 Router 22 lat 1
	 Router 23 lat 1
	 Router 24 lat 1
	 Router 25 lat 1
	 Router 26 lat 1
	 Router 27 lat 1
	 Router 28 lat 1
	 Router 29 lat 1
	 Router 30 lat 1
	 Router 31 lat 1
	 Router 32 lat 1
	 Router 33 lat 1
	 Router 34 lat 1
	 Router 35 lat 1
	 Router 36 lat 1
	 Router 37 lat 1
	 Router 38 lat 1
	 Router 39 lat 1
	 Router 40 lat 1
	 Router 41 lat 1
	 Router 42 lat 1
	 Router 43 lat 1
	 Router 44 lat 1
	 Router 45 lat 1
	 Router 46 lat 1
	 Router 47 lat 1
	 Router 48 lat 1
	 Router 49 lat 1
	 Router 50 lat 1
	 Router 51 lat 1
	 Router 52 lat 1
	 Router 53 lat 1
	 Router 54 lat 1
	 Router 55 lat 1
	 Router 56 lat 1
	 Router 57 lat 1
	 Router 58 lat 1
	 Router 59 lat 1
	 Router 60 lat 1
	 Router 61 lat 1
	 Router 62 lat 1
	 Router 63 lat 1
	 Router 64 lat 1
	 Router 65 lat 1
	 Router 66 lat 1
	 Router 67 lat 1
	 Router 68 lat 1
	 Router 69 lat 1
	 Router 70 lat 1
	 Router 71 lat 1
	 Router 72 lat 1
	 Router 73 lat 1
	 Router 74 lat 1
	 Router 75 lat 1
	 Router 76 lat 1
	 Router 77 lat 1
	 Router 78 lat 1
	 Router 79 lat 1
	 Router 80 lat 1
Router 7
	 Router 0 lat 1
	 Router 1 lat 1
	 Router 2 lat 1
	 Router 3 lat 1
	 Router 4 lat 1
	 Router 5 lat 1
	 Router 6 lat 1
	 Router 8 lat 1
	 Router 9 lat 1
	 Router 10 lat 1
	 Router 11 lat 1
	 Router 12 lat 1
	 Router 13 lat 1
	 Router 14 lat 1
	 Router 15 lat 1
	 Router 16 lat 1
	 Router 17 lat 1
	 Router 18 lat 1
	 Router 19 lat 1
	 Router 20 lat 1
	 Router 21 lat 1
	 Router 22 lat 1
	 Router 23 lat 1
	 Router 24 lat 1
	 Router 25 lat 1
	 Router 26 lat 1
	 Router 27 lat 1
	 Router 28 lat 1
	 Router 29 lat 1
	 Router 30 lat 1
	 Router 31 lat 1
	 Router 32 lat 1
	 Router 33 lat 1
	 Router 34 lat 1
	 Router 35 lat 1
	 Router 36 lat 1
	 Router 37 lat 1
	 Router 38 lat 1
	 Router 39 lat 1
	 Router 40 lat 1
	 Router 41 lat 1
	 Router 42 lat 1
	 Router 43 lat 1
	 Router 44 lat 1
	 Router 45 lat 1
	 Router 46 lat 1
	 Router 47 lat 1
	 Router 48 lat 1
	 Router 49 lat 1
	 Router 50 lat 1
	 Router 51 lat 1
	 Router 52 lat 1
	 Router 53 lat 1
	 Router 54 lat 1
	 Router 55 lat 1
	 Router 56 lat 1
	 Router 57 lat 1
	 Router 58 lat 1
	 Router 59 lat 1
	 Router 60 lat 1
	 Router 61 lat 1
	 Router 62 lat 1
	 Router 63 lat 1
	 Router 64 lat 1
	 Router 65 lat 1
	 Router 66 lat 1
	 Router 67 lat 1
	 Router 68 lat 1
	 Router 69 lat 1
	 Router 70 lat 1
	 Router 71 lat 1
	 Router 72 lat 1
	 Router 73 lat 1
	 Router 74 lat 1
	 Router 75 lat 1
	 Router 76 lat 1
	 Router 77 lat 1
	 Router 78 lat 1
	 Router 79 lat 1
	 Router 80 lat 1
Router 8
	 Router 0 lat 1
	 Router 1 lat 1
	 Router 2 lat 1
	 Router 3 lat 1
	 Router 4 lat 1
	 Router 5 lat 1
	 Router 6 lat 1
	 Router 7 lat 1
	 Router 9 lat 1
	 Router 10 lat 1
	 Router 11 lat 1
	 Router 12 lat 1
	 Router 13 lat 1
	 Router 14 lat 1
	 Router 15 lat 1
	 Router 16 lat 1
	 Router 17 lat 1
	 Router 18 lat 1
	 Router 19 lat 1
	 Router 20 lat 1
	 Router 21 lat 1
	 Router 22 lat 1
	 Router 23 lat 1
	 Router 24 lat 1
	 Router 25 lat 1
	 Router 26 lat 1
	 Router 27 lat 1
	 Router 28 lat 1
	 Router 29 lat 1
	 Router 30 lat 1
	 Router 31 lat 1
	 Router 32 lat 1
	 Router 33 lat 1
	 Router 34 lat 1
	 Router 35 lat 1
	 Router 36 lat 1
	 Router 37 lat 1
	 Router 38 lat 1
	 Router 39 lat 1
	 Router 40 lat 1
	 Router 41 lat 1
	 Router 42 lat 1
	 Router 43 lat 1
	 Router 44 lat 1
	 Router 45 lat 1
	 Router 46 lat 1
	 Router 47 lat 1
	 Router 48 lat 1
	 Router 49 lat 1
	 Router 50 lat 1
	 Router 51 lat 1
	 Router 52 lat 1
	 Router 53 lat 1
	 Router 54 lat 1
	 Router 55 lat 1
	 Router 56 lat 1
	 Router 57 lat 1
	 Router 58 lat 1
	 Router 59 lat 1
	 Router 60 lat 1
	 Router 61 lat 1
	 Router 62 lat 1
	 Router 63 lat 1
	 Router 64 lat 1
	 Router 65 lat 1
	 Router 66 lat 1
	 Router 67 lat 1
	 Router 68 lat 1
	 Router 69 lat 1
	 Router 70 lat 1
	 Router 71 lat 1
	 Router 72 lat 1
	 Router 73 lat 1
	 Router 74 lat 1
	 Router 75 lat 1
	 Router 76 lat 1
	 Router 77 lat 1
	 Router 78 lat 1
	 Router 79 lat 1
	 Router 80 lat 1
Router 9
	 Router 0 lat 1
	 Router 1 lat 1
	 Router 2 lat 1
	 Router 3 lat 1
	 Router 4 lat 1
	 Router 5 lat 1
	 Router 6 lat 1
	 Router 7 lat 1
	 Router 8 lat 1
	 Router 10 lat 1
	 Router 11 lat 1
	 Router 12 lat 1
	 Router 13 lat 1
	 Router 14 lat 1
	 Router 15 lat 1
	 Router 16 lat 1
	 Router 17 lat 1
	 Router 18 lat 1
	 Router 19 lat 1
	 Router 20 lat 1
	 Router 21 lat 1
	 Router 22 lat 1
	 Router 23 lat 1
	 Router 24 lat 1
	 Router 25 lat 1
	 Router 26 lat 1
	 Router 27 lat 1
	 Router 28 lat 1
	 Router 29 lat 1
	 Router 30 lat 1
	 Router 31 lat 1
	 Router 32 lat 1
	 Router 33 lat 1
	 Router 34 lat 1
	 Router 35 lat 1
	 Router 36 lat 1
	 Router 37 lat 1
	 Router 38 lat 1
	 Router 39 lat 1
	 Router 40 lat 1
	 Router 41 lat 1
	 Router 42 lat 1
	 Router 43 lat 1
	 Router 44 lat 1
	 Router 45 lat 1
	 Router 46 lat 1
	 Router 47 lat 1
	 Router 48 lat 1
	 Router 49 lat 1
	 Router 50 lat 1
	 Router 51 lat 1
	 Router 52 lat 1
	 Router 53 lat 1
	 Router 54 lat 1
	 Router 55 lat 1
	 Router 56 lat 1
	 Router 57 lat 1
	 Router 58 lat 1
	 Router 59 lat 1
	 Router 60 lat 1
	 Router 61 lat 1
	 Router 62 lat 1
	 Router 63 lat 1
	 Router 64 lat 1
	 Router 65 lat 1
	 Router 66 lat 1
	 Router 67 lat 1
	 Router 68 lat 1
	 Router 69 lat 1
	 Router 70 lat 1
	 Router 71 lat 1
	 Router 72 lat 1
	 Router 73 lat 1
	 Router 74 lat 1
	 Router 75 lat 1
	 Router 76 lat 1
	 Router 77 lat 1
	 Router 78 lat 1
	 Router 79 lat 1
	 Router 80 lat 1
Router 10
	 Router 0 lat 1
	 Router 1 lat 1
	 Router 2 lat 1
	 Router 3 lat 1
	 Router 4 lat 1
	 Router 5 lat 1
	 Router 6 lat 1
	 Router 7 lat 1
	 Router 8 lat 1
	 Router 9 lat 1
	 Router 11 lat 1
	 Router 12 lat 1
	 Router 13 lat 1
	 Router 14 lat 1
	 Router 15 lat 1
	 Router 16 lat 1
	 Router 17 lat 1
	 Router 18 lat 1
	 Router 19 lat 1
	 Router 20 lat 1
	 Router 21 lat 1
	 Router 22 lat 1
	 Router 23 lat 1
	 Router 24 lat 1
	 Router 25 lat 1
	 Router 26 lat 1
	 Router 27 lat 1
	 Router 28 lat 1
	 Router 29 lat 1
	 Router 30 lat 1
	 Router 31 lat 1
	 Router 32 lat 1
	 Router 33 lat 1
	 Router 34 lat 1
	 Router 35 lat 1
	 Router 36 lat 1
	 Router 37 lat 1
	 Router 38 lat 1
	 Router 39 lat 1
	 Router 40 lat 1
	 Router 41 lat 1
	 Router 42 lat 1
	 Router 43 lat 1
	 Router 44 lat 1
	 Router 45 lat 1
	 Router 46 lat 1
	 Router 47 lat 1
	 Router 48 lat 1
	 Router 49 lat 1
	 Router 50 lat 1
	 Router 51 lat 1
	 Router 52 lat 1
	 Router 53 lat 1
	 Router 54 lat 1
	 Router 55 lat 1
	 Router 56 lat 1
	 Router 57 lat 1
	 Router 58 lat 1
	 Router 59 lat 1
	 Router 60 lat 1
	 Router 61 lat 1
	 Router 62 lat 1
	 Router 63 lat 1
	 Router 64 lat 1
	 Router 65 lat 1
	 Router 66 lat 1
	 Router 67 lat 1
	 Router 68 lat 1
	 Router 69 lat 1
	 Router 70 lat 1
	 Router 71 lat 1
	 Router 72 lat 1
	 Router 73 lat 1
	 Router 74 lat 1
	 Router 75 lat 1
	 Router 76 lat 1
	 Router 77 lat 1
	 Router 78 lat 1
	 Router 79 lat 1
	 Router 80 lat 1
Router 11
	 Router 0 lat 1
	 Router 1 lat 1
	 Router 2 lat 1
	 Router 3 lat 1
	 Router 4 lat 1
	 Router 5 lat 1
	 Router 6 lat 1
	 Router 7 lat 1
	 Router 8 lat 1
	 Router 9 lat 1
	 Router 10 lat 1
	 Router 12 lat 1
	 Router 13 lat 1
	 Router 14 lat 1
	 Router 15 lat 1
	 Router 16 lat 1
	 Router 17 lat 1
	 Router 18 lat 1
	 Router 19 lat 1
	 Router 20 lat 1
	 Router 21 lat 1
	 Router 22 lat 1
	 Router 23 lat 1
	 Router 24 lat 1
	 Router 25 lat 1
	 Router 26 lat 1
	 Router 27 lat 1
	 Router 28 lat 1
	 Router 29 lat 1
	 Router 30 lat 1
	 Router 31 lat 1
	 Router 32 lat 1
	 Router 33 lat 1
	 Router 34 lat 1
	 Router 35 lat 1
	 Router 36 lat 1
	 Router 37 lat 1
	 Router 38 lat 1
	 Router 39 lat 1
	 Router 40 lat 1
	 Router 41 lat 1
	 Router 42 lat 1
	 Router 43 lat 1
	 Router 44 lat 1
	 Router 45 lat 1
	 Router 46 lat 1
	 Router 47 lat 1
	 Router 48 lat 1
	 Router 49 lat 1
	 Router 50 lat 1
	 Router 51 lat 1
	 Router 52 lat 1
	 Router 53 lat 1
	 Router 54 lat 1
	 Router 55 lat 1
	 Router 56 lat 1
	 Router 57 lat 1
	 Router 58 lat 1
	 Router 59 lat 1
	 Router 60 lat 1
	 Router 61 lat 1
	 Router 62 lat 1
	 Router 63 lat 1
	 Router 64 lat 1
	 Router 65 lat 1
	 Router 66 lat 1
	 Router 67 lat 1
	 Router 68 lat 1
	 Router 69 lat 1
	 Router 70 lat 1
	 Router 71 lat 1
	 Router 72 lat 1
	 Router 73 lat 1
	 Router 74 lat 1
	 Router 75 lat 1
	 Router 76 lat 1
	 Router 77 lat 1
	 Router 78 lat 1
	 Router 79 lat 1
	 Router 80 lat 1
Router 12
	 Router 0 lat 1
	 Router 1 lat 1
	 Router 2 lat 1
	 Router 3 lat 1
	 Router 4 lat 1
	 Router 5 lat 1
	 Router 6 lat 1
	 Router 7 lat 1
	 Router 8 lat 1
	 Router 9 lat 1
	 Router 10 lat 1
	 Router 11 lat 1
	 Router 13 lat 1
	 Router 14 lat 1
	 Router 15 lat 1
	 Router 16 lat 1
	 Router 17 lat 1
	 Router 18 lat 1
	 Router 19 lat 1
	 Router 20 lat 1
	 Router 21 lat 1
	 Router 22 lat 1
	 Router 23 lat 1
	 Router 24 lat 1
	 Router 25 lat 1
	 Router 26 lat 1
	 Router 27 lat 1
	 Router 28 lat 1
	 Router 29 lat 1
	 Router 30 lat 1
	 Router 31 lat 1
	 Router 32 lat 1
	 Router 33 lat 1
	 Router 34 lat 1
	 Router 35 lat 1
	 Router 36 lat 1
	 Router 37 lat 1
	 Router 38 lat 1
	 Router 39 lat 1
	 Router 40 lat 1
	 Router 41 lat 1
	 Router 42 lat 1
	 Router 43 lat 1
	 Router 44 lat 1
	 Router 45 lat 1
	 Router 46 lat 1
	 Router 47 lat 1
	 Router 48 lat 1
	 Router 49 lat 1
	 Router 50 lat 1
	 Router 51 lat 1
	 Router 52 lat 1
	 Router 53 lat 1
	 Router 54 lat 1
	 Router 55 lat 1
	 Router 56 lat 1
	 Router 57 lat 1
	 Router 58 lat 1
	 Router 59 lat 1
	 Router 60 lat 1
	 Router 61 lat 1
	 Router 62 lat 1
	 Router 63 lat 1
	 Router 64 lat 1
	 Router 65 lat 1
	 Router 66 lat 1
	 Router 67 lat 1
	 Router 68 lat 1
	 Router 69 lat 1
	 Router 70 lat 1
	 Router 71 lat 1
	 Router 72 lat 1
	 Router 73 lat 1
	 Router 74 lat 1
	 Router 75 lat 1
	 Router 76 lat 1
	 Router 77 lat 1
	 Router 78 lat 1
	 Router 79 lat 1
	 Router 80 lat 1
Router 13
	 Router 0 lat 1
	 Router 1 lat 1
	 Router 2 lat 1
	 Router 3 lat 1
	 Router 4 lat 1
	 Router 5 lat 1
	 Router 6 lat 1
	 Router 7 lat 1
	 Router 8 lat 1
	 Router 9 lat 1
	 Router 10 lat 1
	 Router 11 lat 1
	 Router 12 lat 1
	 Router 14 lat 1
	 Router 15 lat 1
	 Router 16 lat 1
	 Router 17 lat 1
	 Router 18 lat 1
	 Router 19 lat 1
	 Router 20 lat 1
	 Router 21 lat 1
	 Router 22 lat 1
	 Router 23 lat 1
	 Router 24 lat 1
	 Router 25 lat 1
	 Router 26 lat 1
	 Router 27 lat 1
	 Router 28 lat 1
	 Router 29 lat 1
	 Router 30 lat 1
	 Router 31 lat 1
	 Router 32 lat 1
	 Router 33 lat 1
	 Router 34 lat 1
	 Router 35 lat 1
	 Router 36 lat 1
	 Router 37 lat 1
	 Router 38 lat 1
	 Router 39 lat 1
	 Router 40 lat 1
	 Router 41 lat 1
	 Router 42 lat 1
	 Router 43 lat 1
	 Router 44 lat 1
	 Router 45 lat 1
	 Router 46 lat 1
	 Router 47 lat 1
	 Router 48 lat 1
	 Router 49 lat 1
	 Router 50 lat 1
	 Router 51 lat 1
	 Router 52 lat 1
	 Router 53 lat 1
	 Router 54 lat 1
	 Router 55 lat 1
	 Router 56 lat 1
	 Router 57 lat 1
	 Router 58 lat 1
	 Router 59 lat 1
	 Router 60 lat 1
	 Router 61 lat 1
	 Router 62 lat 1
	 Router 63 lat 1
	 Router 64 lat 1
	 Router 65 lat 1
	 Router 66 lat 1
	 Router 67 lat 1
	 Router 68 lat 1
	 Router 69 lat 1
	 Router 70 lat 1
	 Router 71 lat 1
	 Router 72 lat 1
	 Router 73 lat 1
	 Router 74 lat 1
	 Router 75 lat 1
	 Router 76 lat 1
	 Router 77 lat 1
	 Router 78 lat 1
	 Router 79 lat 1
	 Router 80 lat 1
Router 14
	 Router 0 lat 1
	 Router 1 lat 1
	 Router 2 lat 1
	 Router 3 lat 1
	 Router 4 lat 1
	 Router 5 lat 1
	 Router 6 lat 1
	 Router 7 lat 1
	 Router 8 lat 1
	 Router 9 lat 1
	 Router 10 lat 1
	 Router 11 lat 1
	 Router 12 lat 1
	 Router 13 lat 1
	 Router 15 lat 1
	 Router 16 lat 1
	 Router 17 lat 1
	 Router 18 lat 1
	 Router 19 lat 1
	 Router 20 lat 1
	 Router 21 lat 1
	 Router 22 lat 1
	 Router 23 lat 1
	 Router 24 lat 1
	 Router 25 lat 1
	 Router 26 lat 1
	 Router 27 lat 1
	 Router 28 lat 1
	 Router 29 lat 1
	 Router 30 lat 1
	 Router 31 lat 1
	 Router 32 lat 1
	 Router 33 lat 1
	 Router 34 lat 1
	 Router 35 lat 1
	 Router 36 lat 1
	 Router 37 lat 1
	 Router 38 lat 1
	 Router 39 lat 1
	 Router 40 lat 1
	 Router 41 lat 1
	 Router 42 lat 1
	 Router 43 lat 1
	 Router 44 lat 1
	 Router 45 lat 1
	 Router 46 lat 1
	 Router 47 lat 1
	 Router 48 lat 1
	 Router 49 lat 1
	 Router 50 lat 1
	 Router 51 lat 1
	 Router 52 lat 1
	 Router 53 lat 1
	 Router 54 lat 1
	 Router 55 lat 1
	 Router 56 lat 1
	 Router 57 lat 1
	 Router 58 lat 1
	 Router 59 lat 1
	 Router 60 lat 1
	 Router 61 lat 1
	 Router 62 lat 1
	 Router 63 lat 1
	 Router 64 lat 1
	 Router 65 lat 1
	 Router 66 lat 1
	 Router 67 lat 1
	 Router 68 lat 1
	 Router 69 lat 1
	 Router 70 lat 1
	 Router 71 lat 1
	 Router 72 lat 1
	 Router 73 lat 1
	 Router 74 lat 1
	 Router 75 lat 1
	 Router 76 lat 1
	 Router 77 lat 1
	 Router 78 lat 1
	 Router 79 lat 1
	 Router 80 lat 1
Router 15
	 Router 0 lat 1
	 Router 1 lat 1
	 Router 2 lat 1
	 Router 3 lat 1
	 Router 4 lat 1
	 Router 5 lat 1
	 Router 6 lat 1
	 Router 7 lat 1
	 Router 8 lat 1
	 Router 9 lat 1
	 Router 10 lat 1
	 Router 11 lat 1
	 Router 12 lat 1
	 Router 13 lat 1
	 Router 14 lat 1
	 Router 16 lat 1
	 Router 17 lat 1
	 Router 18 lat 1
	 Router 19 lat 1
	 Router 20 lat 1
	 Router 21 lat 1
	 Router 22 lat 1
	 Router 23 lat 1
	 Router 24 lat 1
	 Router 25 lat 1
	 Router 26 lat 1
	 Router 27 lat 1
	 Router 28 lat 1
	 Router 29 lat 1
	 Router 30 lat 1
	 Router 31 lat 1
	 Router 32 lat 1
	 Router 33 lat 1
	 Router 34 lat 1
	 Router 35 lat 1
	 Router 36 lat 1
	 Router 37 lat 1
	 Router 38 lat 1
	 Router 39 lat 1
	 Router 40 lat 1
	 Router 41 lat 1
	 Router 42 lat 1
	 Router 43 lat 1
	 Router 44 lat 1
	 Router 45 lat 1
	 Router 46 lat 1
	 Router 47 lat 1
	 Router 48 lat 1
	 Router 49 lat 1
	 Router 50 lat 1
	 Router 51 lat 1
	 Router 52 lat 1
	 Router 53 lat 1
	 Router 54 lat 1
	 Router 55 lat 1
	 Router 56 lat 1
	 Router 57 lat 1
	 Router 58 lat 1
	 Router 59 lat 1
	 Router 60 lat 1
	 Router 61 lat 1
	 Router 62 lat 1
	 Router 63 lat 1
	 Router 64 lat 1
	 Router 65 lat 1
	 Router 66 lat 1
	 Router 67 lat 1
	 Router 68 lat 1
	 Router 69 lat 1
	 Router 70 lat 1
	 Router 71 lat 1
	 Router 72 lat 1
	 Router 73 lat 1
	 Router 74 lat 1
	 Router 75 lat 1
	 Router 76 lat 1
	 Router 77 lat 1
	 Router 78 lat 1
	 Router 79 lat 1
	 Router 80 lat 1
Router 16
	 Router 0 lat 1
	 Router 1 lat 1
	 Router 2 lat 1
	 Router 3 lat 1
	 Router 4 lat 1
	 Router 5 lat 1
	 Router 6 lat 1
	 Router 7 lat 1
	 Router 8 lat 1
	 Router 9 lat 1
	 Router 10 lat 1
	 Router 11 lat 1
	 Router 12 lat 1
	 Router 13 lat 1
	 Router 14 lat 1
	 Router 15 lat 1
	 Router 17 lat 1
	 Router 18 lat 1
	 Router 19 lat 1
	 Router 20 lat 1
	 Router 21 lat 1
	 Router 22 lat 1
	 Router 23 lat 1
	 Router 24 lat 1
	 Router 25 lat 1
	 Router 26 lat 1
	 Router 27 lat 1
	 Router 28 lat 1
	 Router 29 lat 1
	 Router 30 lat 1
	 Router 31 lat 1
	 Router 32 lat 1
	 Router 33 lat 1
	 Router 34 lat 1
	 Router 35 lat 1
	 Router 36 lat 1
	 Router 37 lat 1
	 Router 38 lat 1
	 Router 39 lat 1
	 Router 40 lat 1
	 Router 41 lat 1
	 Router 42 lat 1
	 Router 43 lat 1
	 Router 44 lat 1
	 Router 45 lat 1
	 Router 46 lat 1
	 Router 47 lat 1
	 Router 48 lat 1
	 Router 49 lat 1
	 Router 50 lat 1
	 Router 51 lat 1
	 Router 52 lat 1
	 Router 53 lat 1
	 Router 54 lat 1
	 Router 55 lat 1
	 Router 56 lat 1
	 Router 57 lat 1
	 Router 58 lat 1
	 Router 59 lat 1
	 Router 60 lat 1
	 Router 61 lat 1
	 Router 62 lat 1
	 Router 63 lat 1
	 Router 64 lat 1
	 Router 65 lat 1
	 Router 66 lat 1
	 Router 67 lat 1
	 Router 68 lat 1
	 Router 69 lat 1
	 Router 70 lat 1
	 Router 71 lat 1
	 Router 72 lat 1
	 Router 73 lat 1
	 Router 74 lat 1
	 Router 75 lat 1
	 Router 76 lat 1
	 Router 77 lat 1
	 Router 78 lat 1
	 Router 79 lat 1
	 Router 80 lat 1
Router 17
	 Router 0 lat 1
	 Router 1 lat 1
	 Router 2 lat 1
	 Router 3 lat 1
	 Router 4 lat 1
	 Router 5 lat 1
	 Router 6 lat 1
	 Router 7 lat 1
	 Router 8 lat 1
	 Router 9 lat 1
	 Router 10 lat 1
	 Router 11 lat 1
	 Router 12 lat 1
	 Router 13 lat 1
	 Router 14 lat 1
	 Router 15 lat 1
	 Router 16 lat 1
	 Router 18 lat 1
	 Router 19 lat 1
	 Router 20 lat 1
	 Router 21 lat 1
	 Router 22 lat 1
	 Router 23 lat 1
	 Router 24 lat 1
	 Router 25 lat 1
	 Router 26 lat 1
	 Router 27 lat 1
	 Router 28 lat 1
	 Router 29 lat 1
	 Router 30 lat 1
	 Router 31 lat 1
	 Router 32 lat 1
	 Router 33 lat 1
	 Router 34 lat 1
	 Router 35 lat 1
	 Router 36 lat 1
	 Router 37 lat 1
	 Router 38 lat 1
	 Router 39 lat 1
	 Router 40 lat 1
	 Router 41 lat 1
	 Router 42 lat 1
	 Router 43 lat 1
	 Router 44 lat 1
	 Router 45 lat 1
	 Router 46 lat 1
	 Router 47 lat 1
	 Router 48 lat 1
	 Router 49 lat 1
	 Router 50 lat 1
	 Router 51 lat 1
	 Router 52 lat 1
	 Router 53 lat 1
	 Router 54 lat 1
	 Router 55 lat 1
	 Router 56 lat 1
	 Router 57 lat 1
	 Router 58 lat 1
	 Router 59 lat 1
	 Router 60 lat 1
	 Router 61 lat 1
	 Router 62 lat 1
	 Router 63 lat 1
	 Router 64 lat 1
	 Router 65 lat 1
	 Router 66 lat 1
	 Router 67 lat 1
	 Router 68 lat 1
	 Router 69 lat 1
	 Router 70 lat 1
	 Router 71 lat 1
	 Router 72 lat 1
	 Router 73 lat 1
	 Router 74 lat 1
	 Router 75 lat 1
	 Router 76 lat 1
	 Router 77 lat 1
	 Router 78 lat 1
	 Router 79 lat 1
	 Router 80 lat 1
Router 18
	 Router 0 lat 1
	 Router 1 lat 1
	 Router 2 lat 1
	 Router 3 lat 1
	 Router 4 lat 1
	 Router 5 lat 1
	 Router 6 lat 1
	 Router 7 lat 1
	 Router 8 lat 1
	 Router 9 lat 1
	 Router 10 lat 1
	 Router 11 lat 1
	 Router 12 lat 1
	 Router 13 lat 1
	 Router 14 lat 1
	 Router 15 lat 1
	 Router 16 lat 1
	 Router 17 lat 1
	 Router 19 lat 1
	 Router 20 lat 1
	 Router 21 lat 1
	 Router 22 lat 1
	 Router 23 lat 1
	 Router 24 lat 1
	 Router 25 lat 1
	 Router 26 lat 1
	 Router 27 lat 1
	 Router 28 lat 1
	 Router 29 lat 1
	 Router 30 lat 1
	 Router 31 lat 1
	 Router 32 lat 1
	 Router 33 lat 1
	 Router 34 lat 1
	 Router 35 lat 1
	 Router 36 lat 1
	 Router 37 lat 1
	 Router 38 lat 1
	 Router 39 lat 1
	 Router 40 lat 1
	 Router 41 lat 1
	 Router 42 lat 1
	 Router 43 lat 1
	 Router 44 lat 1
	 Router 45 lat 1
	 Router 46 lat 1
	 Router 47 lat 1
	 Router 48 lat 1
	 Router 49 lat 1
	 Router 50 lat 1
	 Router 51 lat 1
	 Router 52 lat 1
	 Router 53 lat 1
	 Router 54 lat 1
	 Router 55 lat 1
	 Router 56 lat 1
	 Router 57 lat 1
	 Router 58 lat 1
	 Router 59 lat 1
	 Router 60 lat 1
	 Router 61 lat 1
	 Router 62 lat 1
	 Router 63 lat 1
	 Router 64 lat 1
	 Router 65 lat 1
	 Router 66 lat 1
	 Router 67 lat 1
	 Router 68 lat 1
	 Router 69 lat 1
	 Router 70 lat 1
	 Router 71 lat 1
	 Router 72 lat 1
	 Router 73 lat 1
	 Router 74 lat 1
	 Router 75 lat 1
	 Router 76 lat 1
	 Router 77 lat 1
	 Router 78 lat 1
	 Router 79 lat 1
	 Router 80 lat 1
Router 19
	 Router 0 lat 1
	 Router 1 lat 1
	 Router 2 lat 1
	 Router 3 lat 1
	 Router 4 lat 1
	 Router 5 lat 1
	 Router 6 lat 1
	 Router 7 lat 1
	 Router 8 lat 1
	 Router 9 lat 1
	 Router 10 lat 1
	 Router 11 lat 1
	 Router 12 lat 1
	 Router 13 lat 1
	 Router 14 lat 1
	 Router 15 lat 1
	 Router 16 lat 1
	 Router 17 lat 1
	 Router 18 lat 1
	 Router 20 lat 1
	 Router 21 lat 1
	 Router 22 lat 1
	 Router 23 lat 1
	 Router 24 lat 1
	 Router 25 lat 1
	 Router 26 lat 1
	 Router 27 lat 1
	 Router 28 lat 1
	 Router 29 lat 1
	 Router 30 lat 1
	 Router 31 lat 1
	 Router 32 lat 1
	 Router 33 lat 1
	 Router 34 lat 1
	 Router 35 lat 1
	 Router 36 lat 1
	 Router 37 lat 1
	 Router 38 lat 1
	 Router 39 lat 1
	 Router 40 lat 1
	 Router 41 lat 1
	 Router 42 lat 1
	 Router 43 lat 1
	 Router 44 lat 1
	 Router 45 lat 1
	 Router 46 lat 1
	 Router 47 lat 1
	 Router 48 lat 1
	 Router 49 lat 1
	 Router 50 lat 1
	 Router 51 lat 1
	 Router 52 lat 1
	 Router 53 lat 1
	 Router 54 lat 1
	 Router 55 lat 1
	 Router 56 lat 1
	 Router 57 lat 1
	 Router 58 lat 1
	 Router 59 lat 1
	 Router 60 lat 1
	 Router 61 lat 1
	 Router 62 lat 1
	 Router 63 lat 1
	 Router 64 lat 1
	 Router 65 lat 1
	 Router 66 lat 1
	 Router 67 lat 1
	 Router 68 lat 1
	 Router 69 lat 1
	 Router 70 lat 1
	 Router 71 lat 1
	 Router 72 lat 1
	 Router 73 lat 1
	 Router 74 lat 1
	 Router 75 lat 1
	 Router 76 lat 1
	 Router 77 lat 1
	 Router 78 lat 1
	 Router 79 lat 1
	 Router 80 lat 1
Router 20
	 Router 0 lat 1
	 Router 1 lat 1
	 Router 2 lat 1
	 Router 3 lat 1
	 Router 4 lat 1
	 Router 5 lat 1
	 Router 6 lat 1
	 Router 7 lat 1
	 Router 8 lat 1
	 Router 9 lat 1
	 Router 10 lat 1
	 Router 11 lat 1
	 Router 12 lat 1
	 Router 13 lat 1
	 Router 14 lat 1
	 Router 15 lat 1
	 Router 16 lat 1
	 Router 17 lat 1
	 Router 18 lat 1
	 Router 19 lat 1
	 Router 21 lat 1
	 Router 22 lat 1
	 Router 23 lat 1
	 Router 24 lat 1
	 Router 25 lat 1
	 Router 26 lat 1
	 Router 27 lat 1
	 Router 28 lat 1
	 Router 29 lat 1
	 Router 30 lat 1
	 Router 31 lat 1
	 Router 32 lat 1
	 Router 33 lat 1
	 Router 34 lat 1
	 Router 35 lat 1
	 Router 36 lat 1
	 Router 37 lat 1
	 Router 38 lat 1
	 Router 39 lat 1
	 Router 40 lat 1
	 Router 41 lat 1
	 Router 42 lat 1
	 Router 43 lat 1
	 Router 44 lat 1
	 Router 45 lat 1
	 Router 46 lat 1
	 Router 47 lat 1
	 Router 48 lat 1
	 Router 49 lat 1
	 Router 50 lat 1
	 Router 51 lat 1
	 Router 52 lat 1
	 Router 53 lat 1
	 Router 54 lat 1
	 Router 55 lat 1
	 Router 56 lat 1
	 Router 57 lat 1
	 Router 58 lat 1
	 Router 59 lat 1
	 Router 60 lat 1
	 Router 61 lat 1
	 Router 62 lat 1
	 Router 63 lat 1
	 Router 64 lat 1
	 Router 65 lat 1
	 Router 66 lat 1
	 Router 67 lat 1
	 Router 68 lat 1
	 Router 69 lat 1
	 Router 70 lat 1
	 Router 71 lat 1
	 Router 72 lat 1
	 Router 73 lat 1
	 Router 74 lat 1
	 Router 75 lat 1
	 Router 76 lat 1
	 Router 77 lat 1
	 Router 78 lat 1
	 Router 79 lat 1
	 Router 80 lat 1
Router 21
	 Router 0 lat 1
	 Router 1 lat 1
	 Router 2 lat 1
	 Router 3 lat 1
	 Router 4 lat 1
	 Router 5 lat 1
	 Router 6 lat 1
	 Router 7 lat 1
	 Router 8 lat 1
	 Router 9 lat 1
	 Router 10 lat 1
	 Router 11 lat 1
	 Router 12 lat 1
	 Router 13 lat 1
	 Router 14 lat 1
	 Router 15 lat 1
	 Router 16 lat 1
	 Router 17 lat 1
	 Router 18 lat 1
	 Router 19 lat 1
	 Router 20 lat 1
	 Router 22 lat 1
	 Router 23 lat 1
	 Router 24 lat 1
	 Router 25 lat 1
	 Router 26 lat 1
	 Router 27 lat 1
	 Router 28 lat 1
	 Router 29 lat 1
	 Router 30 lat 1
	 Router 31 lat 1
	 Router 32 lat 1
	 Router 33 lat 1
	 Router 34 lat 1
	 Router 35 lat 1
	 Router 36 lat 1
	 Router 37 lat 1
	 Router 38 lat 1
	 Router 39 lat 1
	 Router 40 lat 1
	 Router 41 lat 1
	 Router 42 lat 1
	 Router 43 lat 1
	 Router 44 lat 1
	 Router 45 lat 1
	 Router 46 lat 1
	 Router 47 lat 1
	 Router 48 lat 1
	 Router 49 lat 1
	 Router 50 lat 1
	 Router 51 lat 1
	 Router 52 lat 1
	 Router 53 lat 1
	 Router 54 lat 1
	 Router 55 lat 1
	 Router 56 lat 1
	 Router 57 lat 1
	 Router 58 lat 1
	 Router 59 lat 1
	 Router 60 lat 1
	 Router 61 lat 1
	 Router 62 lat 1
	 Router 63 lat 1
	 Router 64 lat 1
	 Router 65 lat 1
	 Router 66 lat 1
	 Router 67 lat 1
	 Router 68 lat 1
	 Router 69 lat 1
	 Router 70 lat 1
	 Router 71 lat 1
	 Router 72 lat 1
	 Router 73 lat 1
	 Router 74 lat 1
	 Router 75 lat 1
	 Router 76 lat 1
	 Router 77 lat 1
	 Router 78 lat 1
	 Router 79 lat 1
	 Router 80 lat 1
Router 22
	 Router 0 lat 1
	 Router 1 lat 1
	 Router 2 lat 1
	 Router 3 lat 1
	 Router 4 lat 1
	 Router 5 lat 1
	 Router 6 lat 1
	 Router 7 lat 1
	 Router 8 lat 1
	 Router 9 lat 1
	 Router 10 lat 1
	 Router 11 lat 1
	 Router 12 lat 1
	 Router 13 lat 1
	 Router 14 lat 1
	 Router 15 lat 1
	 Router 16 lat 1
	 Router 17 lat 1
	 Router 18 lat 1
	 Router 19 lat 1
	 Router 20 lat 1
	 Router 21 lat 1
	 Router 23 lat 1
	 Router 24 lat 1
	 Router 25 lat 1
	 Router 26 lat 1
	 Router 27 lat 1
	 Router 28 lat 1
	 Router 29 lat 1
	 Router 30 lat 1
	 Router 31 lat 1
	 Router 32 lat 1
	 Router 33 lat 1
	 Router 34 lat 1
	 Router 35 lat 1
	 Router 36 lat 1
	 Router 37 lat 1
	 Router 38 lat 1
	 Router 39 lat 1
	 Router 40 lat 1
	 Router 41 lat 1
	 Router 42 lat 1
	 Router 43 lat 1
	 Router 44 lat 1
	 Router 45 lat 1
	 Router 46 lat 1
	 Router 47 lat 1
	 Router 48 lat 1
	 Router 49 lat 1
	 Router 50 lat 1
	 Router 51 lat 1
	 Router 52 lat 1
	 Router 53 lat 1
	 Router 54 lat 1
	 Router 55 lat 1
	 Router 56 lat 1
	 Router 57 lat 1
	 Router 58 lat 1
	 Router 59 lat 1
	 Router 60 lat 1
	 Router 61 lat 1
	 Router 62 lat 1
	 Router 63 lat 1
	 Router 64 lat 1
	 Router 65 lat 1
	 Router 66 lat 1
	 Router 67 lat 1
	 Router 68 lat 1
	 Router 69 lat 1
	 Router 70 lat 1
	 Router 71 lat 1
	 Router 72 lat 1
	 Router 73 lat 1
	 Router 74 lat 1
	 Router 75 lat 1
	 Router 76 lat 1
	 Router 77 lat 1
	 Router 78 lat 1
	 Router 79 lat 1
	 Router 80 lat 1
Router 23
	 Router 0 lat 1
	 Router 1 lat 1
	 Router 2 lat 1
	 Router 3 lat 1
	 Router 4 lat 1
	 Router 5 lat 1
	 Router 6 lat 1
	 Router 7 lat 1
	 Router 8 lat 1
	 Router 9 lat 1
	 Router 10 lat 1
	 Router 11 lat 1
	 Router 12 lat 1
	 Router 13 lat 1
	 Router 14 lat 1
	 Router 15 lat 1
	 Router 16 lat 1
	 Router 17 lat 1
	 Router 18 lat 1
	 Router 19 lat 1
	 Router 20 lat 1
	 Router 21 lat 1
	 Router 22 lat 1
	 Router 24 lat 1
	 Router 25 lat 1
	 Router 26 lat 1
	 Router 27 lat 1
	 Router 28 lat 1
	 Router 29 lat 1
	 Router 30 lat 1
	 Router 31 lat 1
	 Router 32 lat 1
	 Router 33 lat 1
	 Router 34 lat 1
	 Router 35 lat 1
	 Router 36 lat 1
	 Router 37 lat 1
	 Router 38 lat 1
	 Router 39 lat 1
	 Router 40 lat 1
	 Router 41 lat 1
	 Router 42 lat 1
	 Router 43 lat 1
	 Router 44 lat 1
	 Router 45 lat 1
	 Router 46 lat 1
	 Router 47 lat 1
	 Router 48 lat 1
	 Router 49 lat 1
	 Router 50 lat 1
	 Router 51 lat 1
	 Router 52 lat 1
	 Router 53 lat 1
	 Router 54 lat 1
	 Router 55 lat 1
	 Router 56 lat 1
	 Router 57 lat 1
	 Router 58 lat 1
	 Router 59 lat 1
	 Router 60 lat 1
	 Router 61 lat 1
	 Router 62 lat 1
	 Router 63 lat 1
	 Router 64 lat 1
	 Router 65 lat 1
	 Router 66 lat 1
	 Router 67 lat 1
	 Router 68 lat 1
	 Router 69 lat 1
	 Router 70 lat 1
	 Router 71 lat 1
	 Router 72 lat 1
	 Router 73 lat 1
	 Router 74 lat 1
	 Router 75 lat 1
	 Router 76 lat 1
	 Router 77 lat 1
	 Router 78 lat 1
	 Router 79 lat 1
	 Router 80 lat 1
Router 24
	 Router 0 lat 1
	 Router 1 lat 1
	 Router 2 lat 1
	 Router 3 lat 1
	 Router 4 lat 1
	 Router 5 lat 1
	 Router 6 lat 1
	 Router 7 lat 1
	 Router 8 lat 1
	 Router 9 lat 1
	 Router 10 lat 1
	 Router 11 lat 1
	 Router 12 lat 1
	 Router 13 lat 1
	 Router 14 lat 1
	 Router 15 lat 1
	 Router 16 lat 1
	 Router 17 lat 1
	 Router 18 lat 1
	 Router 19 lat 1
	 Router 20 lat 1
	 Router 21 lat 1
	 Router 22 lat 1
	 Router 23 lat 1
	 Router 25 lat 1
	 Router 26 lat 1
	 Router 27 lat 1
	 Router 28 lat 1
	 Router 29 lat 1
	 Router 30 lat 1
	 Router 31 lat 1
	 Router 32 lat 1
	 Router 33 lat 1
	 Router 34 lat 1
	 Router 35 lat 1
	 Router 36 lat 1
	 Router 37 lat 1
	 Router 38 lat 1
	 Router 39 lat 1
	 Router 40 lat 1
	 Router 41 lat 1
	 Router 42 lat 1
	 Router 43 lat 1
	 Router 44 lat 1
	 Router 45 lat 1
	 Router 46 lat 1
	 Router 47 lat 1
	 Router 48 lat 1
	 Router 49 lat 1
	 Router 50 lat 1
	 Router 51 lat 1
	 Router 52 lat 1
	 Router 53 lat 1
	 Router 54 lat 1
	 Router 55 lat 1
	 Router 56 lat 1
	 Router 57 lat 1
	 Router 58 lat 1
	 Router 59 lat 1
	 Router 60 lat 1
	 Router 61 lat 1
	 Router 62 lat 1
	 Router 63 lat 1
	 Router 64 lat 1
	 Router 65 lat 1
	 Router 66 lat 1
	 Router 67 lat 1
	 Router 68 lat 1
	 Router 69 lat 1
	 Router 70 lat 1
	 Router 71 lat 1
	 Router 72 lat 1
	 Router 73 lat 1
	 Router 74 lat 1
	 Router 75 lat 1
	 Router 76 lat 1
	 Router 77 lat 1
	 Router 78 lat 1
	 Router 79 lat 1
	 Router 80 lat 1
Router 25
	 Router 0 lat 1
	 Router 1 lat 1
	 Router 2 lat 1
	 Router 3 lat 1
	 Router 4 lat 1
	 Router 5 lat 1
	 Router 6 lat 1
	 Router 7 lat 1
	 Router 8 lat 1
	 Router 9 lat 1
	 Router 10 lat 1
	 Router 11 lat 1
	 Router 12 lat 1
	 Router 13 lat 1
	 Router 14 lat 1
	 Router 15 lat 1
	 Router 16 lat 1
	 Router 17 lat 1
	 Router 18 lat 1
	 Router 19 lat 1
	 Router 20 lat 1
	 Router 21 lat 1
	 Router 22 lat 1
	 Router 23 lat 1
	 Router 24 lat 1
	 Router 26 lat 1
	 Router 27 lat 1
	 Router 28 lat 1
	 Router 29 lat 1
	 Router 30 lat 1
	 Router 31 lat 1
	 Router 32 lat 1
	 Router 33 lat 1
	 Router 34 lat 1
	 Router 35 lat 1
	 Router 36 lat 1
	 Router 37 lat 1
	 Router 38 lat 1
	 Router 39 lat 1
	 Router 40 lat 1
	 Router 41 lat 1
	 Router 42 lat 1
	 Router 43 lat 1
	 Router 44 lat 1
	 Router 45 lat 1
	 Router 46 lat 1
	 Router 47 lat 1
	 Router 48 lat 1
	 Router 49 lat 1
	 Router 50 lat 1
	 Router 51 lat 1
	 Router 52 lat 1
	 Router 53 lat 1
	 Router 54 lat 1
	 Router 55 lat 1
	 Router 56 lat 1
	 Router 57 lat 1
	 Router 58 lat 1
	 Router 59 lat 1
	 Router 60 lat 1
	 Router 61 lat 1
	 Router 62 lat 1
	 Router 63 lat 1
	 Router 64 lat 1
	 Router 65 lat 1
	 Router 66 lat 1
	 Router 67 lat 1
	 Router 68 lat 1
	 Router 69 lat 1
	 Router 70 lat 1
	 Router 71 lat 1
	 Router 72 lat 1
	 Router 73 lat 1
	 Router 74 lat 1
	 Router 75 lat 1
	 Router 76 lat 1
	 Router 77 lat 1
	 Router 78 lat 1
	 Router 79 lat 1
	 Router 80 lat 1
Router 26
	 Router 0 lat 1
	 Router 1 lat 1
	 Router 2 lat 1
	 Router 3 lat 1
	 Router 4 lat 1
	 Router 5 lat 1
	 Router 6 lat 1
	 Router 7 lat 1
	 Router 8 lat 1
	 Router 9 lat 1
	 Router 10 lat 1
	 Router 11 lat 1
	 Router 12 lat 1
	 Router 13 lat 1
	 Router 14 lat 1
	 Router 15 lat 1
	 Router 16 lat 1
	 Router 17 lat 1
	 Router 18 lat 1
	 Router 19 lat 1
	 Router 20 lat 1
	 Router 21 lat 1
	 Router 22 lat 1
	 Router 23 lat 1
	 Router 24 lat 1
	 Router 25 lat 1
	 Router 27 lat 1
	 Router 28 lat 1
	 Router 29 lat 1
	 Router 30 lat 1
	 Router 31 lat 1
	 Router 32 lat 1
	 Router 33 lat 1
	 Router 34 lat 1
	 Router 35 lat 1
	 Router 36 lat 1
	 Router 37 lat 1
	 Router 38 lat 1
	 Router 39 lat 1
	 Router 40 lat 1
	 Router 41 lat 1
	 Router 42 lat 1
	 Router 43 lat 1
	 Router 44 lat 1
	 Router 45 lat 1
	 Router 46 lat 1
	 Router 47 lat 1
	 Router 48 lat 1
	 Router 49 lat 1
	 Router 50 lat 1
	 Router 51 lat 1
	 Router 52 lat 1
	 Router 53 lat 1
	 Router 54 lat 1
	 Router 55 lat 1
	 Router 56 lat 1
	 Router 57 lat 1
	 Router 58 lat 1
	 Router 59 lat 1
	 Router 60 lat 1
	 Router 61 lat 1
	 Router 62 lat 1
	 Router 63 lat 1
	 Router 64 lat 1
	 Router 65 lat 1
	 Router 66 lat 1
	 Router 67 lat 1
	 Router 68 lat 1
	 Router 69 lat 1
	 Router 70 lat 1
	 Router 71 lat 1
	 Router 72 lat 1
	 Router 73 lat 1
	 Router 74 lat 1
	 Router 75 lat 1
	 Router 76 lat 1
	 Router 77 lat 1
	 Router 78 lat 1
	 Router 79 lat 1
	 Router 80 lat 1
Router 27
	 Router 0 lat 1
	 Router 1 lat 1
	 Router 2 lat 1
	 Router 3 lat 1
	 Router 4 lat 1
	 Router 5 lat 1
	 Router 6 lat 1
	 Router 7 lat 1
	 Router 8 lat 1
	 Router 9 lat 1
	 Router 10 lat 1
	 Router 11 lat 1
	 Router 12 lat 1
	 Router 13 lat 1
	 Router 14 lat 1
	 Router 15 lat 1
	 Router 16 lat 1
	 Router 17 lat 1
	 Router 18 lat 1
	 Router 19 lat 1
	 Router 20 lat 1
	 Router 21 lat 1
	 Router 22 lat 1
	 Router 23 lat 1
	 Router 24 lat 1
	 Router 25 lat 1
	 Router 26 lat 1
	 Router 28 lat 1
	 Router 29 lat 1
	 Router 30 lat 1
	 Router 31 lat 1
	 Router 32 lat 1
	 Router 33 lat 1
	 Router 34 lat 1
	 Router 35 lat 1
	 Router 36 lat 1
	 Router 37 lat 1
	 Router 38 lat 1
	 Router 39 lat 1
	 Router 40 lat 1
	 Router 41 lat 1
	 Router 42 lat 1
	 Router 43 lat 1
	 Router 44 lat 1
	 Router 45 lat 1
	 Router 46 lat 1
	 Router 47 lat 1
	 Router 48 lat 1
	 Router 49 lat 1
	 Router 50 lat 1
	 Router 51 lat 1
	 Router 52 lat 1
	 Router 53 lat 1
	 Router 54 lat 1
	 Router 55 lat 1
	 Router 56 lat 1
	 Router 57 lat 1
	 Router 58 lat 1
	 Router 59 lat 1
	 Router 60 lat 1
	 Router 61 lat 1
	 Router 62 lat 1
	 Router 63 lat 1
	 Router 64 lat 1
	 Router 65 lat 1
	 Router 66 lat 1
	 Router 67 lat 1
	 Router 68 lat 1
	 Router 69 lat 1
	 Router 70 lat 1
	 Router 71 lat 1
	 Router 72 lat 1
	 Router 73 lat 1
	 Router 74 lat 1
	 Router 75 lat 1
	 Router 76 lat 1
	 Router 77 lat 1
	 Router 78 lat 1
	 Router 79 lat 1
	 Router 80 lat 1
Router 28
	 Router 0 lat 1
	 Router 1 lat 1
	 Router 2 lat 1
	 Router 3 lat 1
	 Router 4 lat 1
	 Router 5 lat 1
	 Router 6 lat 1
	 Router 7 lat 1
	 Router 8 lat 1
	 Router 9 lat 1
	 Router 10 lat 1
	 Router 11 lat 1
	 Router 12 lat 1
	 Router 13 lat 1
	 Router 14 lat 1
	 Router 15 lat 1
	 Router 16 lat 1
	 Router 17 lat 1
	 Router 18 lat 1
	 Router 19 lat 1
	 Router 20 lat 1
	 Router 21 lat 1
	 Router 22 lat 1
	 Router 23 lat 1
	 Router 24 lat 1
	 Router 25 lat 1
	 Router 26 lat 1
	 Router 27 lat 1
	 Router 29 lat 1
	 Router 30 lat 1
	 Router 31 lat 1
	 Router 32 lat 1
	 Router 33 lat 1
	 Router 34 lat 1
	 Router 35 lat 1
	 Router 36 lat 1
	 Router 37 lat 1
	 Router 38 lat 1
	 Router 39 lat 1
	 Router 40 lat 1
	 Router 41 lat 1
	 Router 42 lat 1
	 Router 43 lat 1
	 Router 44 lat 1
	 Router 45 lat 1
	 Router 46 lat 1
	 Router 47 lat 1
	 Router 48 lat 1
	 Router 49 lat 1
	 Router 50 lat 1
	 Router 51 lat 1
	 Router 52 lat 1
	 Router 53 lat 1
	 Router 54 lat 1
	 Router 55 lat 1
	 Router 56 lat 1
	 Router 57 lat 1
	 Router 58 lat 1
	 Router 59 lat 1
	 Router 60 lat 1
	 Router 61 lat 1
	 Router 62 lat 1
	 Router 63 lat 1
	 Router 64 lat 1
	 Router 65 lat 1
	 Router 66 lat 1
	 Router 67 lat 1
	 Router 68 lat 1
	 Router 69 lat 1
	 Router 70 lat 1
	 Router 71 lat 1
	 Router 72 lat 1
	 Router 73 lat 1
	 Router 74 lat 1
	 Router 75 lat 1
	 Router 76 lat 1
	 Router 77 lat 1
	 Router 78 lat 1
	 Router 79 lat 1
	 Router 80 lat 1
Router 29
	 Router 0 lat 1
	 Router 1 lat 1
	 Router 2 lat 1
	 Router 3 lat 1
	 Router 4 lat 1
	 Router 5 lat 1
	 Router 6 lat 1
	 Router 7 lat 1
	 Router 8 lat 1
	 Router 9 lat 1
	 Router 10 lat 1
	 Router 11 lat 1
	 Router 12 lat 1
	 Router 13 lat 1
	 Router 14 lat 1
	 Router 15 lat 1
	 Router 16 lat 1
	 Router 17 lat 1
	 Router 18 lat 1
	 Router 19 lat 1
	 Router 20 lat 1
	 Router 21 lat 1
	 Router 22 lat 1
	 Router 23 lat 1
	 Router 24 lat 1
	 Router 25 lat 1
	 Router 26 lat 1
	 Router 27 lat 1
	 Router 28 lat 1
	 Router 30 lat 1
	 Router 31 lat 1
	 Router 32 lat 1
	 Router 33 lat 1
	 Router 34 lat 1
	 Router 35 lat 1
	 Router 36 lat 1
	 Router 37 lat 1
	 Router 38 lat 1
	 Router 39 lat 1
	 Router 40 lat 1
	 Router 41 lat 1
	 Router 42 lat 1
	 Router 43 lat 1
	 Router 44 lat 1
	 Router 45 lat 1
	 Router 46 lat 1
	 Router 47 lat 1
	 Router 48 lat 1
	 Router 49 lat 1
	 Router 50 lat 1
	 Router 51 lat 1
	 Router 52 lat 1
	 Router 53 lat 1
	 Router 54 lat 1
	 Router 55 lat 1
	 Router 56 lat 1
	 Router 57 lat 1
	 Router 58 lat 1
	 Router 59 lat 1
	 Router 60 lat 1
	 Router 61 lat 1
	 Router 62 lat 1
	 Router 63 lat 1
	 Router 64 lat 1
	 Router 65 lat 1
	 Router 66 lat 1
	 Router 67 lat 1
	 Router 68 lat 1
	 Router 69 lat 1
	 Router 70 lat 1
	 Router 71 lat 1
	 Router 72 lat 1
	 Router 73 lat 1
	 Router 74 lat 1
	 Router 75 lat 1
	 Router 76 lat 1
	 Router 77 lat 1
	 Router 78 lat 1
	 Router 79 lat 1
	 Router 80 lat 1
Router 30
	 Router 0 lat 1
	 Router 1 lat 1
	 Router 2 lat 1
	 Router 3 lat 1
	 Router 4 lat 1
	 Router 5 lat 1
	 Router 6 lat 1
	 Router 7 lat 1
	 Router 8 lat 1
	 Router 9 lat 1
	 Router 10 lat 1
	 Router 11 lat 1
	 Router 12 lat 1
	 Router 13 lat 1
	 Router 14 lat 1
	 Router 15 lat 1
	 Router 16 lat 1
	 Router 17 lat 1
	 Router 18 lat 1
	 Router 19 lat 1
	 Router 20 lat 1
	 Router 21 lat 1
	 Router 22 lat 1
	 Router 23 lat 1
	 Router 24 lat 1
	 Router 25 lat 1
	 Router 26 lat 1
	 Router 27 lat 1
	 Router 28 lat 1
	 Router 29 lat 1
	 Router 31 lat 1
	 Router 32 lat 1
	 Router 33 lat 1
	 Router 34 lat 1
	 Router 35 lat 1
	 Router 36 lat 1
	 Router 37 lat 1
	 Router 38 lat 1
	 Router 39 lat 1
	 Router 40 lat 1
	 Router 41 lat 1
	 Router 42 lat 1
	 Router 43 lat 1
	 Router 44 lat 1
	 Router 45 lat 1
	 Router 46 lat 1
	 Router 47 lat 1
	 Router 48 lat 1
	 Router 49 lat 1
	 Router 50 lat 1
	 Router 51 lat 1
	 Router 52 lat 1
	 Router 53 lat 1
	 Router 54 lat 1
	 Router 55 lat 1
	 Router 56 lat 1
	 Router 57 lat 1
	 Router 58 lat 1
	 Router 59 lat 1
	 Router 60 lat 1
	 Router 61 lat 1
	 Router 62 lat 1
	 Router 63 lat 1
	 Router 64 lat 1
	 Router 65 lat 1
	 Router 66 lat 1
	 Router 67 lat 1
	 Router 68 lat 1
	 Router 69 lat 1
	 Router 70 lat 1
	 Router 71 lat 1
	 Router 72 lat 1
	 Router 73 lat 1
	 Router 74 lat 1
	 Router 75 lat 1
	 Router 76 lat 1
	 Router 77 lat 1
	 Router 78 lat 1
	 Router 79 lat 1
	 Router 80 lat 1
Router 31
	 Router 0 lat 1
	 Router 1 lat 1
	 Router 2 lat 1
	 Router 3 lat 1
	 Router 4 lat 1
	 Router 5 lat 1
	 Router 6 lat 1
	 Router 7 lat 1
	 Router 8 lat 1
	 Router 9 lat 1
	 Router 10 lat 1
	 Router 11 lat 1
	 Router 12 lat 1
	 Router 13 lat 1
	 Router 14 lat 1
	 Router 15 lat 1
	 Router 16 lat 1
	 Router 17 lat 1
	 Router 18 lat 1
	 Router 19 lat 1
	 Router 20 lat 1
	 Router 21 lat 1
	 Router 22 lat 1
	 Router 23 lat 1
	 Router 24 lat 1
	 Router 25 lat 1
	 Router 26 lat 1
	 Router 27 lat 1
	 Router 28 lat 1
	 Router 29 lat 1
	 Router 30 lat 1
	 Router 32 lat 1
	 Router 33 lat 1
	 Router 34 lat 1
	 Router 35 lat 1
	 Router 36 lat 1
	 Router 37 lat 1
	 Router 38 lat 1
	 Router 39 lat 1
	 Router 40 lat 1
	 Router 41 lat 1
	 Router 42 lat 1
	 Router 43 lat 1
	 Router 44 lat 1
	 Router 45 lat 1
	 Router 46 lat 1
	 Router 47 lat 1
	 Router 48 lat 1
	 Router 49 lat 1
	 Router 50 lat 1
	 Router 51 lat 1
	 Router 52 lat 1
	 Router 53 lat 1
	 Router 54 lat 1
	 Router 55 lat 1
	 Router 56 lat 1
	 Router 57 lat 1
	 Router 58 lat 1
	 Router 59 lat 1
	 Router 60 lat 1
	 Router 61 lat 1
	 Router 62 lat 1
	 Router 63 lat 1
	 Router 64 lat 1
	 Router 65 lat 1
	 Router 66 lat 1
	 Router 67 lat 1
	 Router 68 lat 1
	 Router 69 lat 1
	 Router 70 lat 1
	 Router 71 lat 1
	 Router 72 lat 1
	 Router 73 lat 1
	 Router 74 lat 1
	 Router 75 lat 1
	 Router 76 lat 1
	 Router 77 lat 1
	 Router 78 lat 1
	 Router 79 lat 1
	 Router 80 lat 1
Router 32
	 Router 0 lat 1
	 Router 1 lat 1
	 Router 2 lat 1
	 Router 3 lat 1
	 Router 4 lat 1
	 Router 5 lat 1
	 Router 6 lat 1
	 Router 7 lat 1
	 Router 8 lat 1
	 Router 9 lat 1
	 Router 10 lat 1
	 Router 11 lat 1
	 Router 12 lat 1
	 Router 13 lat 1
	 Router 14 lat 1
	 Router 15 lat 1
	 Router 16 lat 1
	 Router 17 lat 1
	 Router 18 lat 1
	 Router 19 lat 1
	 Router 20 lat 1
	 Router 21 lat 1
	 Router 22 lat 1
	 Router 23 lat 1
	 Router 24 lat 1
	 Router 25 lat 1
	 Router 26 lat 1
	 Router 27 lat 1
	 Router 28 lat 1
	 Router 29 lat 1
	 Router 30 lat 1
	 Router 31 lat 1
	 Router 33 lat 1
	 Router 34 lat 1
	 Router 35 lat 1
	 Router 36 lat 1
	 Router 37 lat 1
	 Router 38 lat 1
	 Router 39 lat 1
	 Router 40 lat 1
	 Router 41 lat 1
	 Router 42 lat 1
	 Router 43 lat 1
	 Router 44 lat 1
	 Router 45 lat 1
	 Router 46 lat 1
	 Router 47 lat 1
	 Router 48 lat 1
	 Router 49 lat 1
	 Router 50 lat 1
	 Router 51 lat 1
	 Router 52 lat 1
	 Router 53 lat 1
	 Router 54 lat 1
	 Router 55 lat 1
	 Router 56 lat 1
	 Router 57 lat 1
	 Router 58 lat 1
	 Router 59 lat 1
	 Router 60 lat 1
	 Router 61 lat 1
	 Router 62 lat 1
	 Router 63 lat 1
	 Router 64 lat 1
	 Router 65 lat 1
	 Router 66 lat 1
	 Router 67 lat 1
	 Router 68 lat 1
	 Router 69 lat 1
	 Router 70 lat 1
	 Router 71 lat 1
	 Router 72 lat 1
	 Router 73 lat 1
	 Router 74 lat 1
	 Router 75 lat 1
	 Router 76 lat 1
	 Router 77 lat 1
	 Router 78 lat 1
	 Router 79 lat 1
	 Router 80 lat 1
Router 33
	 Router 0 lat 1
	 Router 1 lat 1
	 Router 2 lat 1
	 Router 3 lat 1
	 Router 4 lat 1
	 Router 5 lat 1
	 Router 6 lat 1
	 Router 7 lat 1
	 Router 8 lat 1
	 Router 9 lat 1
	 Router 10 lat 1
	 Router 11 lat 1
	 Router 12 lat 1
	 Router 13 lat 1
	 Router 14 lat 1
	 Router 15 lat 1
	 Router 16 lat 1
	 Router 17 lat 1
	 Router 18 lat 1
	 Router 19 lat 1
	 Router 20 lat 1
	 Router 21 lat 1
	 Router 22 lat 1
	 Router 23 lat 1
	 Router 24 lat 1
	 Router 25 lat 1
	 Router 26 lat 1
	 Router 27 lat 1
	 Router 28 lat 1
	 Router 29 lat 1
	 Router 30 lat 1
	 Router 31 lat 1
	 Router 32 lat 1
	 Router 34 lat 1
	 Router 35 lat 1
	 Router 36 lat 1
	 Router 37 lat 1
	 Router 38 lat 1
	 Router 39 lat 1
	 Router 40 lat 1
	 Router 41 lat 1
	 Router 42 lat 1
	 Router 43 lat 1
	 Router 44 lat 1
	 Router 45 lat 1
	 Router 46 lat 1
	 Router 47 lat 1
	 Router 48 lat 1
	 Router 49 lat 1
	 Router 50 lat 1
	 Router 51 lat 1
	 Router 52 lat 1
	 Router 53 lat 1
	 Router 54 lat 1
	 Router 55 lat 1
	 Router 56 lat 1
	 Router 57 lat 1
	 Router 58 lat 1
	 Router 59 lat 1
	 Router 60 lat 1
	 Router 61 lat 1
	 Router 62 lat 1
	 Router 63 lat 1
	 Router 64 lat 1
	 Router 65 lat 1
	 Router 66 lat 1
	 Router 67 lat 1
	 Router 68 lat 1
	 Router 69 lat 1
	 Router 70 lat 1
	 Router 71 lat 1
	 Router 72 lat 1
	 Router 73 lat 1
	 Router 74 lat 1
	 Router 75 lat 1
	 Router 76 lat 1
	 Router 77 lat 1
	 Router 78 lat 1
	 Router 79 lat 1
	 Router 80 lat 1
Router 34
	 Router 0 lat 1
	 Router 1 lat 1
	 Router 2 lat 1
	 Router 3 lat 1
	 Router 4 lat 1
	 Router 5 lat 1
	 Router 6 lat 1
	 Router 7 lat 1
	 Router 8 lat 1
	 Router 9 lat 1
	 Router 10 lat 1
	 Router 11 lat 1
	 Router 12 lat 1
	 Router 13 lat 1
	 Router 14 lat 1
	 Router 15 lat 1
	 Router 16 lat 1
	 Router 17 lat 1
	 Router 18 lat 1
	 Router 19 lat 1
	 Router 20 lat 1
	 Router 21 lat 1
	 Router 22 lat 1
	 Router 23 lat 1
	 Router 24 lat 1
	 Router 25 lat 1
	 Router 26 lat 1
	 Router 27 lat 1
	 Router 28 lat 1
	 Router 29 lat 1
	 Router 30 lat 1
	 Router 31 lat 1
	 Router 32 lat 1
	 Router 33 lat 1
	 Router 35 lat 1
	 Router 36 lat 1
	 Router 37 lat 1
	 Router 38 lat 1
	 Router 39 lat 1
	 Router 40 lat 1
	 Router 41 lat 1
	 Router 42 lat 1
	 Router 43 lat 1
	 Router 44 lat 1
	 Router 45 lat 1
	 Router 46 lat 1
	 Router 47 lat 1
	 Router 48 lat 1
	 Router 49 lat 1
	 Router 50 lat 1
	 Router 51 lat 1
	 Router 52 lat 1
	 Router 53 lat 1
	 Router 54 lat 1
	 Router 55 lat 1
	 Router 56 lat 1
	 Router 57 lat 1
	 Router 58 lat 1
	 Router 59 lat 1
	 Router 60 lat 1
	 Router 61 lat 1
	 Router 62 lat 1
	 Router 63 lat 1
	 Router 64 lat 1
	 Router 65 lat 1
	 Router 66 lat 1
	 Router 67 lat 1
	 Router 68 lat 1
	 Router 69 lat 1
	 Router 70 lat 1
	 Router 71 lat 1
	 Router 72 lat 1
	 Router 73 lat 1
	 Router 74 lat 1
	 Router 75 lat 1
	 Router 76 lat 1
	 Router 77 lat 1
	 Router 78 lat 1
	 Router 79 lat 1
	 Router 80 lat 1
Router 35
	 Router 0 lat 1
	 Router 1 lat 1
	 Router 2 lat 1
	 Router 3 lat 1
	 Router 4 lat 1
	 Router 5 lat 1
	 Router 6 lat 1
	 Router 7 lat 1
	 Router 8 lat 1
	 Router 9 lat 1
	 Router 10 lat 1
	 Router 11 lat 1
	 Router 12 lat 1
	 Router 13 lat 1
	 Router 14 lat 1
	 Router 15 lat 1
	 Router 16 lat 1
	 Router 17 lat 1
	 Router 18 lat 1
	 Router 19 lat 1
	 Router 20 lat 1
	 Router 21 lat 1
	 Router 22 lat 1
	 Router 23 lat 1
	 Router 24 lat 1
	 Router 25 lat 1
	 Router 26 lat 1
	 Router 27 lat 1
	 Router 28 lat 1
	 Router 29 lat 1
	 Router 30 lat 1
	 Router 31 lat 1
	 Router 32 lat 1
	 Router 33 lat 1
	 Router 34 lat 1
	 Router 36 lat 1
	 Router 37 lat 1
	 Router 38 lat 1
	 Router 39 lat 1
	 Router 40 lat 1
	 Router 41 lat 1
	 Router 42 lat 1
	 Router 43 lat 1
	 Router 44 lat 1
	 Router 45 lat 1
	 Router 46 lat 1
	 Router 47 lat 1
	 Router 48 lat 1
	 Router 49 lat 1
	 Router 50 lat 1
	 Router 51 lat 1
	 Router 52 lat 1
	 Router 53 lat 1
	 Router 54 lat 1
	 Router 55 lat 1
	 Router 56 lat 1
	 Router 57 lat 1
	 Router 58 lat 1
	 Router 59 lat 1
	 Router 60 lat 1
	 Router 61 lat 1
	 Router 62 lat 1
	 Router 63 lat 1
	 Router 64 lat 1
	 Router 65 lat 1
	 Router 66 lat 1
	 Router 67 lat 1
	 Router 68 lat 1
	 Router 69 lat 1
	 Router 70 lat 1
	 Router 71 lat 1
	 Router 72 lat 1
	 Router 73 lat 1
	 Router 74 lat 1
	 Router 75 lat 1
	 Router 76 lat 1
	 Router 77 lat 1
	 Router 78 lat 1
	 Router 79 lat 1
	 Router 80 lat 1
Router 36
	 Router 0 lat 1
	 Router 1 lat 1
	 Router 2 lat 1
	 Router 3 lat 1
	 Router 4 lat 1
	 Router 5 lat 1
	 Router 6 lat 1
	 Router 7 lat 1
	 Router 8 lat 1
	 Router 9 lat 1
	 Router 10 lat 1
	 Router 11 lat 1
	 Router 12 lat 1
	 Router 13 lat 1
	 Router 14 lat 1
	 Router 15 lat 1
	 Router 16 lat 1
	 Router 17 lat 1
	 Router 18 lat 1
	 Router 19 lat 1
	 Router 20 lat 1
	 Router 21 lat 1
	 Router 22 lat 1
	 Router 23 lat 1
	 Router 24 lat 1
	 Router 25 lat 1
	 Router 26 lat 1
	 Router 27 lat 1
	 Router 28 lat 1
	 Router 29 lat 1
	 Router 30 lat 1
	 Router 31 lat 1
	 Router 32 lat 1
	 Router 33 lat 1
	 Router 34 lat 1
	 Router 35 lat 1
	 Router 37 lat 1
	 Router 38 lat 1
	 Router 39 lat 1
	 Router 40 lat 1
	 Router 41 lat 1
	 Router 42 lat 1
	 Router 43 lat 1
	 Router 44 lat 1
	 Router 45 lat 1
	 Router 46 lat 1
	 Router 47 lat 1
	 Router 48 lat 1
	 Router 49 lat 1
	 Router 50 lat 1
	 Router 51 lat 1
	 Router 52 lat 1
	 Router 53 lat 1
	 Router 54 lat 1
	 Router 55 lat 1
	 Router 56 lat 1
	 Router 57 lat 1
	 Router 58 lat 1
	 Router 59 lat 1
	 Router 60 lat 1
	 Router 61 lat 1
	 Router 62 lat 1
	 Router 63 lat 1
	 Router 64 lat 1
	 Router 65 lat 1
	 Router 66 lat 1
	 Router 67 lat 1
	 Router 68 lat 1
	 Router 69 lat 1
	 Router 70 lat 1
	 Router 71 lat 1
	 Router 72 lat 1
	 Router 73 lat 1
	 Router 74 lat 1
	 Router 75 lat 1
	 Router 76 lat 1
	 Router 77 lat 1
	 Router 78 lat 1
	 Router 79 lat 1
	 Router 80 lat 1
Router 37
	 Router 0 lat 1
	 Router 1 lat 1
	 Router 2 lat 1
	 Router 3 lat 1
	 Router 4 lat 1
	 Router 5 lat 1
	 Router 6 lat 1
	 Router 7 lat 1
	 Router 8 lat 1
	 Router 9 lat 1
	 Router 10 lat 1
	 Router 11 lat 1
	 Router 12 lat 1
	 Router 13 lat 1
	 Router 14 lat 1
	 Router 15 lat 1
	 Router 16 lat 1
	 Router 17 lat 1
	 Router 18 lat 1
	 Router 19 lat 1
	 Router 20 lat 1
	 Router 21 lat 1
	 Router 22 lat 1
	 Router 23 lat 1
	 Router 24 lat 1
	 Router 25 lat 1
	 Router 26 lat 1
	 Router 27 lat 1
	 Router 28 lat 1
	 Router 29 lat 1
	 Router 30 lat 1
	 Router 31 lat 1
	 Router 32 lat 1
	 Router 33 lat 1
	 Router 34 lat 1
	 Router 35 lat 1
	 Router 36 lat 1
	 Router 38 lat 1
	 Router 39 lat 1
	 Router 40 lat 1
	 Router 41 lat 1
	 Router 42 lat 1
	 Router 43 lat 1
	 Router 44 lat 1
	 Router 45 lat 1
	 Router 46 lat 1
	 Router 47 lat 1
	 Router 48 lat 1
	 Router 49 lat 1
	 Router 50 lat 1
	 Router 51 lat 1
	 Router 52 lat 1
	 Router 53 lat 1
	 Router 54 lat 1
	 Router 55 lat 1
	 Router 56 lat 1
	 Router 57 lat 1
	 Router 58 lat 1
	 Router 59 lat 1
	 Router 60 lat 1
	 Router 61 lat 1
	 Router 62 lat 1
	 Router 63 lat 1
	 Router 64 lat 1
	 Router 65 lat 1
	 Router 66 lat 1
	 Router 67 lat 1
	 Router 68 lat 1
	 Router 69 lat 1
	 Router 70 lat 1
	 Router 71 lat 1
	 Router 72 lat 1
	 Router 73 lat 1
	 Router 74 lat 1
	 Router 75 lat 1
	 Router 76 lat 1
	 Router 77 lat 1
	 Router 78 lat 1
	 Router 79 lat 1
	 Router 80 lat 1
Router 38
	 Router 0 lat 1
	 Router 1 lat 1
	 Router 2 lat 1
	 Router 3 lat 1
	 Router 4 lat 1
	 Router 5 lat 1
	 Router 6 lat 1
	 Router 7 lat 1
	 Router 8 lat 1
	 Router 9 lat 1
	 Router 10 lat 1
	 Router 11 lat 1
	 Router 12 lat 1
	 Router 13 lat 1
	 Router 14 lat 1
	 Router 15 lat 1
	 Router 16 lat 1
	 Router 17 lat 1
	 Router 18 lat 1
	 Router 19 lat 1
	 Router 20 lat 1
	 Router 21 lat 1
	 Router 22 lat 1
	 Router 23 lat 1
	 Router 24 lat 1
	 Router 25 lat 1
	 Router 26 lat 1
	 Router 27 lat 1
	 Router 28 lat 1
	 Router 29 lat 1
	 Router 30 lat 1
	 Router 31 lat 1
	 Router 32 lat 1
	 Router 33 lat 1
	 Router 34 lat 1
	 Router 35 lat 1
	 Router 36 lat 1
	 Router 37 lat 1
	 Router 39 lat 1
	 Router 40 lat 1
	 Router 41 lat 1
	 Router 42 lat 1
	 Router 43 lat 1
	 Router 44 lat 1
	 Router 45 lat 1
	 Router 46 lat 1
	 Router 47 lat 1
	 Router 48 lat 1
	 Router 49 lat 1
	 Router 50 lat 1
	 Router 51 lat 1
	 Router 52 lat 1
	 Router 53 lat 1
	 Router 54 lat 1
	 Router 55 lat 1
	 Router 56 lat 1
	 Router 57 lat 1
	 Router 58 lat 1
	 Router 59 lat 1
	 Router 60 lat 1
	 Router 61 lat 1
	 Router 62 lat 1
	 Router 63 lat 1
	 Router 64 lat 1
	 Router 65 lat 1
	 Router 66 lat 1
	 Router 67 lat 1
	 Router 68 lat 1
	 Router 69 lat 1
	 Router 70 lat 1
	 Router 71 lat 1
	 Router 72 lat 1
	 Router 73 lat 1
	 Router 74 lat 1
	 Router 75 lat 1
	 Router 76 lat 1
	 Router 77 lat 1
	 Router 78 lat 1
	 Router 79 lat 1
	 Router 80 lat 1
Router 39
	 Router 0 lat 1
	 Router 1 lat 1
	 Router 2 lat 1
	 Router 3 lat 1
	 Router 4 lat 1
	 Router 5 lat 1
	 Router 6 lat 1
	 Router 7 lat 1
	 Router 8 lat 1
	 Router 9 lat 1
	 Router 10 lat 1
	 Router 11 lat 1
	 Router 12 lat 1
	 Router 13 lat 1
	 Router 14 lat 1
	 Router 15 lat 1
	 Router 16 lat 1
	 Router 17 lat 1
	 Router 18 lat 1
	 Router 19 lat 1
	 Router 20 lat 1
	 Router 21 lat 1
	 Router 22 lat 1
	 Router 23 lat 1
	 Router 24 lat 1
	 Router 25 lat 1
	 Router 26 lat 1
	 Router 27 lat 1
	 Router 28 lat 1
	 Router 29 lat 1
	 Router 30 lat 1
	 Router 31 lat 1
	 Router 32 lat 1
	 Router 33 lat 1
	 Router 34 lat 1
	 Router 35 lat 1
	 Router 36 lat 1
	 Router 37 lat 1
	 Router 38 lat 1
	 Router 40 lat 1
	 Router 41 lat 1
	 Router 42 lat 1
	 Router 43 lat 1
	 Router 44 lat 1
	 Router 45 lat 1
	 Router 46 lat 1
	 Router 47 lat 1
	 Router 48 lat 1
	 Router 49 lat 1
	 Router 50 lat 1
	 Router 51 lat 1
	 Router 52 lat 1
	 Router 53 lat 1
	 Router 54 lat 1
	 Router 55 lat 1
	 Router 56 lat 1
	 Router 57 lat 1
	 Router 58 lat 1
	 Router 59 lat 1
	 Router 60 lat 1
	 Router 61 lat 1
	 Router 62 lat 1
	 Router 63 lat 1
	 Router 64 lat 1
	 Router 65 lat 1
	 Router 66 lat 1
	 Router 67 lat 1
	 Router 68 lat 1
	 Router 69 lat 1
	 Router 70 lat 1
	 Router 71 lat 1
	 Router 72 lat 1
	 Router 73 lat 1
	 Router 74 lat 1
	 Router 75 lat 1
	 Router 76 lat 1
	 Router 77 lat 1
	 Router 78 lat 1
	 Router 79 lat 1
	 Router 80 lat 1
Router 40
	 Router 0 lat 1
	 Router 1 lat 1
	 Router 2 lat 1
	 Router 3 lat 1
	 Router 4 lat 1
	 Router 5 lat 1
	 Router 6 lat 1
	 Router 7 lat 1
	 Router 8 lat 1
	 Router 9 lat 1
	 Router 10 lat 1
	 Router 11 lat 1
	 Router 12 lat 1
	 Router 13 lat 1
	 Router 14 lat 1
	 Router 15 lat 1
	 Router 16 lat 1
	 Router 17 lat 1
	 Router 18 lat 1
	 Router 19 lat 1
	 Router 20 lat 1
	 Router 21 lat 1
	 Router 22 lat 1
	 Router 23 lat 1
	 Router 24 lat 1
	 Router 25 lat 1
	 Router 26 lat 1
	 Router 27 lat 1
	 Router 28 lat 1
	 Router 29 lat 1
	 Router 30 lat 1
	 Router 31 lat 1
	 Router 32 lat 1
	 Router 33 lat 1
	 Router 34 lat 1
	 Router 35 lat 1
	 Router 36 lat 1
	 Router 37 lat 1
	 Router 38 lat 1
	 Router 39 lat 1
	 Router 41 lat 1
	 Router 42 lat 1
	 Router 43 lat 1
	 Router 44 lat 1
	 Router 45 lat 1
	 Router 46 lat 1
	 Router 47 lat 1
	 Router 48 lat 1
	 Router 49 lat 1
	 Router 50 lat 1
	 Router 51 lat 1
	 Router 52 lat 1
	 Router 53 lat 1
	 Router 54 lat 1
	 Router 55 lat 1
	 Router 56 lat 1
	 Router 57 lat 1
	 Router 58 lat 1
	 Router 59 lat 1
	 Router 60 lat 1
	 Router 61 lat 1
	 Router 62 lat 1
	 Router 63 lat 1
	 Router 64 lat 1
	 Router 65 lat 1
	 Router 66 lat 1
	 Router 67 lat 1
	 Router 68 lat 1
	 Router 69 lat 1
	 Router 70 lat 1
	 Router 71 lat 1
	 Router 72 lat 1
	 Router 73 lat 1
	 Router 74 lat 1
	 Router 75 lat 1
	 Router 76 lat 1
	 Router 77 lat 1
	 Router 78 lat 1
	 Router 79 lat 1
	 Router 80 lat 1
Router 41
	 Router 0 lat 1
	 Router 1 lat 1
	 Router 2 lat 1
	 Router 3 lat 1
	 Router 4 lat 1
	 Router 5 lat 1
	 Router 6 lat 1
	 Router 7 lat 1
	 Router 8 lat 1
	 Router 9 lat 1
	 Router 10 lat 1
	 Router 11 lat 1
	 Router 12 lat 1
	 Router 13 lat 1
	 Router 14 lat 1
	 Router 15 lat 1
	 Router 16 lat 1
	 Router 17 lat 1
	 Router 18 lat 1
	 Router 19 lat 1
	 Router 20 lat 1
	 Router 21 lat 1
	 Router 22 lat 1
	 Router 23 lat 1
	 Router 24 lat 1
	 Router 25 lat 1
	 Router 26 lat 1
	 Router 27 lat 1
	 Router 28 lat 1
	 Router 29 lat 1
	 Router 30 lat 1
	 Router 31 lat 1
	 Router 32 lat 1
	 Router 33 lat 1
	 Router 34 lat 1
	 Router 35 lat 1
	 Router 36 lat 1
	 Router 37 lat 1
	 Router 38 lat 1
	 Router 39 lat 1
	 Router 40 lat 1
	 Router 42 lat 1
	 Router 43 lat 1
	 Router 44 lat 1
	 Router 45 lat 1
	 Router 46 lat 1
	 Router 47 lat 1
	 Router 48 lat 1
	 Router 49 lat 1
	 Router 50 lat 1
	 Router 51 lat 1
	 Router 52 lat 1
	 Router 53 lat 1
	 Router 54 lat 1
	 Router 55 lat 1
	 Router 56 lat 1
	 Router 57 lat 1
	 Router 58 lat 1
	 Router 59 lat 1
	 Router 60 lat 1
	 Router 61 lat 1
	 Router 62 lat 1
	 Router 63 lat 1
	 Router 64 lat 1
	 Router 65 lat 1
	 Router 66 lat 1
	 Router 67 lat 1
	 Router 68 lat 1
	 Router 69 lat 1
	 Router 70 lat 1
	 Router 71 lat 1
	 Router 72 lat 1
	 Router 73 lat 1
	 Router 74 lat 1
	 Router 75 lat 1
	 Router 76 lat 1
	 Router 77 lat 1
	 Router 78 lat 1
	 Router 79 lat 1
	 Router 80 lat 1
Router 42
	 Router 0 lat 1
	 Router 1 lat 1
	 Router 2 lat 1
	 Router 3 lat 1
	 Router 4 lat 1
	 Router 5 lat 1
	 Router 6 lat 1
	 Router 7 lat 1
	 Router 8 lat 1
	 Router 9 lat 1
	 Router 10 lat 1
	 Router 11 lat 1
	 Router 12 lat 1
	 Router 13 lat 1
	 Router 14 lat 1
	 Router 15 lat 1
	 Router 16 lat 1
	 Router 17 lat 1
	 Router 18 lat 1
	 Router 19 lat 1
	 Router 20 lat 1
	 Router 21 lat 1
	 Router 22 lat 1
	 Router 23 lat 1
	 Router 24 lat 1
	 Router 25 lat 1
	 Router 26 lat 1
	 Router 27 lat 1
	 Router 28 lat 1
	 Router 29 lat 1
	 Router 30 lat 1
	 Router 31 lat 1
	 Router 32 lat 1
	 Router 33 lat 1
	 Router 34 lat 1
	 Router 35 lat 1
	 Router 36 lat 1
	 Router 37 lat 1
	 Router 38 lat 1
	 Router 39 lat 1
	 Router 40 lat 1
	 Router 41 lat 1
	 Router 43 lat 1
	 Router 44 lat 1
	 Router 45 lat 1
	 Router 46 lat 1
	 Router 47 lat 1
	 Router 48 lat 1
	 Router 49 lat 1
	 Router 50 lat 1
	 Router 51 lat 1
	 Router 52 lat 1
	 Router 53 lat 1
	 Router 54 lat 1
	 Router 55 lat 1
	 Router 56 lat 1
	 Router 57 lat 1
	 Router 58 lat 1
	 Router 59 lat 1
	 Router 60 lat 1
	 Router 61 lat 1
	 Router 62 lat 1
	 Router 63 lat 1
	 Router 64 lat 1
	 Router 65 lat 1
	 Router 66 lat 1
	 Router 67 lat 1
	 Router 68 lat 1
	 Router 69 lat 1
	 Router 70 lat 1
	 Router 71 lat 1
	 Router 72 lat 1
	 Router 73 lat 1
	 Router 74 lat 1
	 Router 75 lat 1
	 Router 76 lat 1
	 Router 77 lat 1
	 Router 78 lat 1
	 Router 79 lat 1
	 Router 80 lat 1
Router 43
	 Router 0 lat 1
	 Router 1 lat 1
	 Router 2 lat 1
	 Router 3 lat 1
	 Router 4 lat 1
	 Router 5 lat 1
	 Router 6 lat 1
	 Router 7 lat 1
	 Router 8 lat 1
	 Router 9 lat 1
	 Router 10 lat 1
	 Router 11 lat 1
	 Router 12 lat 1
	 Router 13 lat 1
	 Router 14 lat 1
	 Router 15 lat 1
	 Router 16 lat 1
	 Router 17 lat 1
	 Router 18 lat 1
	 Router 19 lat 1
	 Router 20 lat 1
	 Router 21 lat 1
	 Router 22 lat 1
	 Router 23 lat 1
	 Router 24 lat 1
	 Router 25 lat 1
	 Router 26 lat 1
	 Router 27 lat 1
	 Router 28 lat 1
	 Router 29 lat 1
	 Router 30 lat 1
	 Router 31 lat 1
	 Router 32 lat 1
	 Router 33 lat 1
	 Router 34 lat 1
	 Router 35 lat 1
	 Router 36 lat 1
	 Router 37 lat 1
	 Router 38 lat 1
	 Router 39 lat 1
	 Router 40 lat 1
	 Router 41 lat 1
	 Router 42 lat 1
	 Router 44 lat 1
	 Router 45 lat 1
	 Router 46 lat 1
	 Router 47 lat 1
	 Router 48 lat 1
	 Router 49 lat 1
	 Router 50 lat 1
	 Router 51 lat 1
	 Router 52 lat 1
	 Router 53 lat 1
	 Router 54 lat 1
	 Router 55 lat 1
	 Router 56 lat 1
	 Router 57 lat 1
	 Router 58 lat 1
	 Router 59 lat 1
	 Router 60 lat 1
	 Router 61 lat 1
	 Router 62 lat 1
	 Router 63 lat 1
	 Router 64 lat 1
	 Router 65 lat 1
	 Router 66 lat 1
	 Router 67 lat 1
	 Router 68 lat 1
	 Router 69 lat 1
	 Router 70 lat 1
	 Router 71 lat 1
	 Router 72 lat 1
	 Router 73 lat 1
	 Router 74 lat 1
	 Router 75 lat 1
	 Router 76 lat 1
	 Router 77 lat 1
	 Router 78 lat 1
	 Router 79 lat 1
	 Router 80 lat 1
Router 44
	 Router 0 lat 1
	 Router 1 lat 1
	 Router 2 lat 1
	 Router 3 lat 1
	 Router 4 lat 1
	 Router 5 lat 1
	 Router 6 lat 1
	 Router 7 lat 1
	 Router 8 lat 1
	 Router 9 lat 1
	 Router 10 lat 1
	 Router 11 lat 1
	 Router 12 lat 1
	 Router 13 lat 1
	 Router 14 lat 1
	 Router 15 lat 1
	 Router 16 lat 1
	 Router 17 lat 1
	 Router 18 lat 1
	 Router 19 lat 1
	 Router 20 lat 1
	 Router 21 lat 1
	 Router 22 lat 1
	 Router 23 lat 1
	 Router 24 lat 1
	 Router 25 lat 1
	 Router 26 lat 1
	 Router 27 lat 1
	 Router 28 lat 1
	 Router 29 lat 1
	 Router 30 lat 1
	 Router 31 lat 1
	 Router 32 lat 1
	 Router 33 lat 1
	 Router 34 lat 1
	 Router 35 lat 1
	 Router 36 lat 1
	 Router 37 lat 1
	 Router 38 lat 1
	 Router 39 lat 1
	 Router 40 lat 1
	 Router 41 lat 1
	 Router 42 lat 1
	 Router 43 lat 1
	 Router 45 lat 1
	 Router 46 lat 1
	 Router 47 lat 1
	 Router 48 lat 1
	 Router 49 lat 1
	 Router 50 lat 1
	 Router 51 lat 1
	 Router 52 lat 1
	 Router 53 lat 1
	 Router 54 lat 1
	 Router 55 lat 1
	 Router 56 lat 1
	 Router 57 lat 1
	 Router 58 lat 1
	 Router 59 lat 1
	 Router 60 lat 1
	 Router 61 lat 1
	 Router 62 lat 1
	 Router 63 lat 1
	 Router 64 lat 1
	 Router 65 lat 1
	 Router 66 lat 1
	 Router 67 lat 1
	 Router 68 lat 1
	 Router 69 lat 1
	 Router 70 lat 1
	 Router 71 lat 1
	 Router 72 lat 1
	 Router 73 lat 1
	 Router 74 lat 1
	 Router 75 lat 1
	 Router 76 lat 1
	 Router 77 lat 1
	 Router 78 lat 1
	 Router 79 lat 1
	 Router 80 lat 1
Router 45
	 Router 0 lat 1
	 Router 1 lat 1
	 Router 2 lat 1
	 Router 3 lat 1
	 Router 4 lat 1
	 Router 5 lat 1
	 Router 6 lat 1
	 Router 7 lat 1
	 Router 8 lat 1
	 Router 9 lat 1
	 Router 10 lat 1
	 Router 11 lat 1
	 Router 12 lat 1
	 Router 13 lat 1
	 Router 14 lat 1
	 Router 15 lat 1
	 Router 16 lat 1
	 Router 17 lat 1
	 Router 18 lat 1
	 Router 19 lat 1
	 Router 20 lat 1
	 Router 21 lat 1
	 Router 22 lat 1
	 Router 23 lat 1
	 Router 24 lat 1
	 Router 25 lat 1
	 Router 26 lat 1
	 Router 27 lat 1
	 Router 28 lat 1
	 Router 29 lat 1
	 Router 30 lat 1
	 Router 31 lat 1
	 Router 32 lat 1
	 Router 33 lat 1
	 Router 34 lat 1
	 Router 35 lat 1
	 Router 36 lat 1
	 Router 37 lat 1
	 Router 38 lat 1
	 Router 39 lat 1
	 Router 40 lat 1
	 Router 41 lat 1
	 Router 42 lat 1
	 Router 43 lat 1
	 Router 44 lat 1
	 Router 46 lat 1
	 Router 47 lat 1
	 Router 48 lat 1
	 Router 49 lat 1
	 Router 50 lat 1
	 Router 51 lat 1
	 Router 52 lat 1
	 Router 53 lat 1
	 Router 54 lat 1
	 Router 55 lat 1
	 Router 56 lat 1
	 Router 57 lat 1
	 Router 58 lat 1
	 Router 59 lat 1
	 Router 60 lat 1
	 Router 61 lat 1
	 Router 62 lat 1
	 Router 63 lat 1
	 Router 64 lat 1
	 Router 65 lat 1
	 Router 66 lat 1
	 Router 67 lat 1
	 Router 68 lat 1
	 Router 69 lat 1
	 Router 70 lat 1
	 Router 71 lat 1
	 Router 72 lat 1
	 Router 73 lat 1
	 Router 74 lat 1
	 Router 75 lat 1
	 Router 76 lat 1
	 Router 77 lat 1
	 Router 78 lat 1
	 Router 79 lat 1
	 Router 80 lat 1
Router 46
	 Router 0 lat 1
	 Router 1 lat 1
	 Router 2 lat 1
	 Router 3 lat 1
	 Router 4 lat 1
	 Router 5 lat 1
	 Router 6 lat 1
	 Router 7 lat 1
	 Router 8 lat 1
	 Router 9 lat 1
	 Router 10 lat 1
	 Router 11 lat 1
	 Router 12 lat 1
	 Router 13 lat 1
	 Router 14 lat 1
	 Router 15 lat 1
	 Router 16 lat 1
	 Router 17 lat 1
	 Router 18 lat 1
	 Router 19 lat 1
	 Router 20 lat 1
	 Router 21 lat 1
	 Router 22 lat 1
	 Router 23 lat 1
	 Router 24 lat 1
	 Router 25 lat 1
	 Router 26 lat 1
	 Router 27 lat 1
	 Router 28 lat 1
	 Router 29 lat 1
	 Router 30 lat 1
	 Router 31 lat 1
	 Router 32 lat 1
	 Router 33 lat 1
	 Router 34 lat 1
	 Router 35 lat 1
	 Router 36 lat 1
	 Router 37 lat 1
	 Router 38 lat 1
	 Router 39 lat 1
	 Router 40 lat 1
	 Router 41 lat 1
	 Router 42 lat 1
	 Router 43 lat 1
	 Router 44 lat 1
	 Router 45 lat 1
	 Router 47 lat 1
	 Router 48 lat 1
	 Router 49 lat 1
	 Router 50 lat 1
	 Router 51 lat 1
	 Router 52 lat 1
	 Router 53 lat 1
	 Router 54 lat 1
	 Router 55 lat 1
	 Router 56 lat 1
	 Router 57 lat 1
	 Router 58 lat 1
	 Router 59 lat 1
	 Router 60 lat 1
	 Router 61 lat 1
	 Router 62 lat 1
	 Router 63 lat 1
	 Router 64 lat 1
	 Router 65 lat 1
	 Router 66 lat 1
	 Router 67 lat 1
	 Router 68 lat 1
	 Router 69 lat 1
	 Router 70 lat 1
	 Router 71 lat 1
	 Router 72 lat 1
	 Router 73 lat 1
	 Router 74 lat 1
	 Router 75 lat 1
	 Router 76 lat 1
	 Router 77 lat 1
	 Router 78 lat 1
	 Router 79 lat 1
	 Router 80 lat 1
Router 47
	 Router 0 lat 1
	 Router 1 lat 1
	 Router 2 lat 1
	 Router 3 lat 1
	 Router 4 lat 1
	 Router 5 lat 1
	 Router 6 lat 1
	 Router 7 lat 1
	 Router 8 lat 1
	 Router 9 lat 1
	 Router 10 lat 1
	 Router 11 lat 1
	 Router 12 lat 1
	 Router 13 lat 1
	 Router 14 lat 1
	 Router 15 lat 1
	 Router 16 lat 1
	 Router 17 lat 1
	 Router 18 lat 1
	 Router 19 lat 1
	 Router 20 lat 1
	 Router 21 lat 1
	 Router 22 lat 1
	 Router 23 lat 1
	 Router 24 lat 1
	 Router 25 lat 1
	 Router 26 lat 1
	 Router 27 lat 1
	 Router 28 lat 1
	 Router 29 lat 1
	 Router 30 lat 1
	 Router 31 lat 1
	 Router 32 lat 1
	 Router 33 lat 1
	 Router 34 lat 1
	 Router 35 lat 1
	 Router 36 lat 1
	 Router 37 lat 1
	 Router 38 lat 1
	 Router 39 lat 1
	 Router 40 lat 1
	 Router 41 lat 1
	 Router 42 lat 1
	 Router 43 lat 1
	 Router 44 lat 1
	 Router 45 lat 1
	 Router 46 lat 1
	 Router 48 lat 1
	 Router 49 lat 1
	 Router 50 lat 1
	 Router 51 lat 1
	 Router 52 lat 1
	 Router 53 lat 1
	 Router 54 lat 1
	 Router 55 lat 1
	 Router 56 lat 1
	 Router 57 lat 1
	 Router 58 lat 1
	 Router 59 lat 1
	 Router 60 lat 1
	 Router 61 lat 1
	 Router 62 lat 1
	 Router 63 lat 1
	 Router 64 lat 1
	 Router 65 lat 1
	 Router 66 lat 1
	 Router 67 lat 1
	 Router 68 lat 1
	 Router 69 lat 1
	 Router 70 lat 1
	 Router 71 lat 1
	 Router 72 lat 1
	 Router 73 lat 1
	 Router 74 lat 1
	 Router 75 lat 1
	 Router 76 lat 1
	 Router 77 lat 1
	 Router 78 lat 1
	 Router 79 lat 1
	 Router 80 lat 1
Router 48
	 Router 0 lat 1
	 Router 1 lat 1
	 Router 2 lat 1
	 Router 3 lat 1
	 Router 4 lat 1
	 Router 5 lat 1
	 Router 6 lat 1
	 Router 7 lat 1
	 Router 8 lat 1
	 Router 9 lat 1
	 Router 10 lat 1
	 Router 11 lat 1
	 Router 12 lat 1
	 Router 13 lat 1
	 Router 14 lat 1
	 Router 15 lat 1
	 Router 16 lat 1
	 Router 17 lat 1
	 Router 18 lat 1
	 Router 19 lat 1
	 Router 20 lat 1
	 Router 21 lat 1
	 Router 22 lat 1
	 Router 23 lat 1
	 Router 24 lat 1
	 Router 25 lat 1
	 Router 26 lat 1
	 Router 27 lat 1
	 Router 28 lat 1
	 Router 29 lat 1
	 Router 30 lat 1
	 Router 31 lat 1
	 Router 32 lat 1
	 Router 33 lat 1
	 Router 34 lat 1
	 Router 35 lat 1
	 Router 36 lat 1
	 Router 37 lat 1
	 Router 38 lat 1
	 Router 39 lat 1
	 Router 40 lat 1
	 Router 41 lat 1
	 Router 42 lat 1
	 Router 43 lat 1
	 Router 44 lat 1
	 Router 45 lat 1
	 Router 46 lat 1
	 Router 47 lat 1
	 Router 49 lat 1
	 Router 50 lat 1
	 Router 51 lat 1
	 Router 52 lat 1
	 Router 53 lat 1
	 Router 54 lat 1
	 Router 55 lat 1
	 Router 56 lat 1
	 Router 57 lat 1
	 Router 58 lat 1
	 Router 59 lat 1
	 Router 60 lat 1
	 Router 61 lat 1
	 Router 62 lat 1
	 Router 63 lat 1
	 Router 64 lat 1
	 Router 65 lat 1
	 Router 66 lat 1
	 Router 67 lat 1
	 Router 68 lat 1
	 Router 69 lat 1
	 Router 70 lat 1
	 Router 71 lat 1
	 Router 72 lat 1
	 Router 73 lat 1
	 Router 74 lat 1
	 Router 75 lat 1
	 Router 76 lat 1
	 Router 77 lat 1
	 Router 78 lat 1
	 Router 79 lat 1
	 Router 80 lat 1
Router 49
	 Router 0 lat 1
	 Router 1 lat 1
	 Router 2 lat 1
	 Router 3 lat 1
	 Router 4 lat 1
	 Router 5 lat 1
	 Router 6 lat 1
	 Router 7 lat 1
	 Router 8 lat 1
	 Router 9 lat 1
	 Router 10 lat 1
	 Router 11 lat 1
	 Router 12 lat 1
	 Router 13 lat 1
	 Router 14 lat 1
	 Router 15 lat 1
	 Router 16 lat 1
	 Router 17 lat 1
	 Router 18 lat 1
	 Router 19 lat 1
	 Router 20 lat 1
	 Router 21 lat 1
	 Router 22 lat 1
[...]
	 connected to router 18 using link 6258 at outport 19 lat 1
	 connected to router 19 using link 6259 at outport 20 lat 1
	 connected to router 20 using link 6260 at outport 21 lat 1
	 connected to router 21 using link 6261 at outport 22 lat 1
	 connected to router 22 using link 6262 at outport 23 lat 1
	 connected to router 23 using link 6263 at outport 24 lat 1
	 connected to router 24 using link 6264 at outport 25 lat 1
	 connected to router 25 using link 6265 at outport 26 lat 1
	 connected to router 26 using link 6266 at outport 27 lat 1
	 connected to router 27 using link 6267 at outport 28 lat 1
	 connected to router 28 using link 6268 at outport 29 lat 1
	 connected to router 29 using link 6269 at outport 30 lat 1
	 connected to router 30 using link 6270 at outport 31 lat 1
	 connected to router 31 using link 6271 at outport 32 lat 1
	 connected to router 32 using link 6272 at outport 33 lat 1
	 connected to router 33 using link 6273 at outport 34 lat 1
	 connected to router 34 using link 6274 at outport 35 lat 1
	 connected to router 35 using link 6275 at outport 36 lat 1
	 connected to router 36 using link 6276 at outport 37 lat 1
	 connected to router 37 using link 6277 at outport 38 lat 1
	 connected to router 38 using link 6278 at outport 39 lat 1
	 connected to router 39 using link 6279 at outport 40 lat 1
	 connected to router 40 using link 6280 at outport 41 lat 1
	 connected to router 41 using link 6281 at outport 42 lat 1
	 connected to router 42 using link 6282 at outport 43 lat 1
	 connected to router 43 using link 6283 at outport 44 lat 1
	 connected to router 44 using link 6284 at outport 45 lat 1
	 connected to router 45 using link 6285 at outport 46 lat 1
	 connected to router 46 using link 6286 at outport 47 lat 1
	 connected to router 47 using link 6287 at outport 48 lat 1
	 connected to router 48 using link 6288 at outport 49 lat 1
	 connected to router 49 using link 6289 at outport 50 lat 1
	 connected to router 50 using link 6290 at outport 51 lat 1
	 connected to router 51 using link 6291 at outport 52 lat 1
	 connected to router 52 using link 6292 at outport 53 lat 1
	 connected to router 53 using link 6293 at outport 54 lat 1
	 connected to router 54 using link 6294 at outport 55 lat 1
	 connected to router 55 using link 6295 at outport 56 lat 1
	 connected to router 56 using link 6296 at outport 57 lat 1
	 connected to router 57 using link 6297 at outport 58 lat 1
	 connected to router 58 using link 6298 at outport 59 lat 1
	 connected to router 59 using link 6299 at outport 60 lat 1
	 connected to router 60 using link 6300 at outport 61 lat 1
	 connected to router 61 using link 6301 at outport 62 lat 1
	 connected to router 62 using link 6302 at outport 63 lat 1
	 connected to router 63 using link 6303 at outport 64 lat 1
	 connected to router 64 using link 6304 at outport 65 lat 1
	 connected to router 65 using link 6305 at outport 66 lat 1
	 connected to router 66 using link 6306 at outport 67 lat 1
	 connected to router 67 using link 6307 at outport 68 lat 1
	 connected to router 68 using link 6308 at outport 69 lat 1
	 connected to router 69 using link 6309 at outport 70 lat 1
	 connected to router 70 using link 6310 at outport 71 lat 1
	 connected to router 71 using link 6311 at outport 72 lat 1
	 connected to router 72 using link 6312 at outport 73 lat 1
	 connected to router 73 using link 6313 at outport 74 lat 1
	 connected to router 74 using link 6314 at outport 75 lat 1
	 connected to router 75 using link 6315 at outport 76 lat 1
	 connected to router 76 using link 6316 at outport 77 lat 1
	 connected to router 77 using link 6317 at outport 78 lat 1
	 connected to router 79 using link 6318 at outport 79 lat 1
	 connected to router 80 using link 6319 at outport 80 lat 1
router 79
	 connected to router 0 using link 6320 at outport 1 lat 1
	 connected to router 1 using link 6321 at outport 2 lat 1
	 connected to router 2 using link 6322 at outport 3 lat 1
	 connected to router 3 using link 6323 at outport 4 lat 1
	 connected to router 4 using link 6324 at outport 5 lat 1
	 connected to router 5 using link 6325 at outport 6 lat 1
	 connected to router 6 using link 6326 at outport 7 lat 1
	 connected to router 7 using link 6327 at outport 8 lat 1
	 connected to router 8 using link 6328 at outport 9 lat 1
	 connected to router 9 using link 6329 at outport 10 lat 1
	 connected to router 10 using link 6330 at outport 11 lat 1
	 connected to router 11 using link 6331 at outport 12 lat 1
	 connected to router 12 using link 6332 at outport 13 lat 1
	 connected to router 13 using link 6333 at outport 14 lat 1
	 connected to router 14 using link 6334 at outport 15 lat 1
	 connected to router 15 using link 6335 at outport 16 lat 1
	 connected to router 16 using link 6336 at outport 17 lat 1
	 connected to router 17 using link 6337 at outport 18 lat 1
	 connected to router 18 using link 6338 at outport 19 lat 1
	 connected to router 19 using link 6339 at outport 20 lat 1
	 connected to router 20 using link 6340 at outport 21 lat 1
	 connected to router 21 using link 6341 at outport 22 lat 1
	 connected to router 22 using link 6342 at outport 23 lat 1
	 connected to router 23 using link 6343 at outport 24 lat 1
	 connected to router 24 using link 6344 at outport 25 lat 1
	 connected to router 25 using link 6345 at outport 26 lat 1
	 connected to router 26 using link 6346 at outport 27 lat 1
	 connected to router 27 using link 6347 at outport 28 lat 1
	 connected to router 28 using link 6348 at outport 29 lat 1
	 connected to router 29 using link 6349 at outport 30 lat 1
	 connected to router 30 using link 6350 at outport 31 lat 1
	 connected to router 31 using link 6351 at outport 32 lat 1
	 connected to router 32 using link 6352 at outport 33 lat 1
	 connected to router 33 using link 6353 at outport 34 lat 1
	 connected to router 34 using link 6354 at outport 35 lat 1
	 connected to router 35 using link 6355 at outport 36 lat 1
	 connected to router 36 using link 6356 at outport 37 lat 1
	 connected to router 37 using link 6357 at outport 38 lat 1
	 connected to router 38 using link 6358 at outport 39 lat 1
	 connected to router 39 using link 6359 at outport 40 lat 1
	 connected to router 40 using link 6360 at outport 41 lat 1
	 connected to router 41 using link 6361 at outport 42 lat 1
	 connected to router 42 using link 6362 at outport 43 lat 1
	 connected to router 43 using link 6363 at outport 44 lat 1
	 connected to router 44 using link 6364 at outport 45 lat 1
	 connected to router 45 using link 6365 at outport 46 lat 1
	 connected to router 46 using link 6366 at outport 47 lat 1
	 connected to router 47 using link 6367 at outport 48 lat 1
	 connected to router 48 using link 6368 at outport 49 lat 1
	 connected to router 49 using link 6369 at outport 50 lat 1
	 connected to router 50 using link 6370 at outport 51 lat 1
	 connected to router 51 using link 6371 at outport 52 lat 1
	 connected to router 52 using link 6372 at outport 53 lat 1
	 connected to router 53 using link 6373 at outport 54 lat 1
	 connected to router 54 using link 6374 at outport 55 lat 1
	 connected to router 55 using link 6375 at outport 56 lat 1
	 connected to router 56 using link 6376 at outport 57 lat 1
	 connected to router 57 using link 6377 at outport 58 lat 1
	 connected to router 58 using link 6378 at outport 59 lat 1
	 connected to router 59 using link 6379 at outport 60 lat 1
	 connected to router 60 using link 6380 at outport 61 lat 1
	 connected to router 61 using link 6381 at outport 62 lat 1
	 connected to router 62 using link 6382 at outport 63 lat 1
	 connected to router 63 using link 6383 at outport 64 lat 1
	 connected to router 64 using link 6384 at outport 65 lat 1
	 connected to router 65 using link 6385 at outport 66 lat 1
	 connected to router 66 using link 6386 at outport 67 lat 1
	 connected to router 67 using link 6387 at outport 68 lat 1
	 connected to router 68 using link 6388 at outport 69 lat 1
	 connected to router 69 using link 6389 at outport 70 lat 1
	 connected to router 70 using link 6390 at outport 71 lat 1
	 connected to router 71 using link 6391 at outport 72 lat 1
	 connected to router 72 using link 6392 at outport 73 lat 1
	 connected to router 73 using link 6393 at outport 74 lat 1
	 connected to router 74 using link 6394 at outport 75 lat 1
	 connected to router 75 using link 6395 at outport 76 lat 1
	 connected to router 76 using link 6396 at outport 77 lat 1
	 connected to router 77 using link 6397 at outport 78 lat 1
	 connected to router 78 using link 6398 at outport 79 lat 1
	 connected to router 80 using link 6399 at outport 80 lat 1
router 80
	 connected to router 0 using link 6400 at outport 1 lat 1
	 connected to router 1 using link 6401 at outport 2 lat 1
	 connected to router 2 using link 6402 at outport 3 lat 1
	 connected to router 3 using link 6403 at outport 4 lat 1
	 connected to router 4 using link 6404 at outport 5 lat 1
	 connected to router 5 using link 6405 at outport 6 lat 1
	 connected to router 6 using link 6406 at outport 7 lat 1
	 connected to router 7 using link 6407 at outport 8 lat 1
	 connected to router 8 using link 6408 at outport 9 lat 1
	 connected to router 9 using link 6409 at outport 10 lat 1
	 connected to router 10 using link 6410 at outport 11 lat 1
	 connected to router 11 using link 6411 at outport 12 lat 1
	 connected to router 12 using link 6412 at outport 13 lat 1
	 connected to router 13 using link 6413 at outport 14 lat 1
	 connected to router 14 using link 6414 at outport 15 lat 1
	 connected to router 15 using link 6415 at outport 16 lat 1
	 connected to router 16 using link 6416 at outport 17 lat 1
	 connected to router 17 using link 6417 at outport 18 lat 1
	 connected to router 18 using link 6418 at outport 19 lat 1
	 connected to router 19 using link 6419 at outport 20 lat 1
	 connected to router 20 using link 6420 at outport 21 lat 1
	 connected to router 21 using link 6421 at outport 22 lat 1
	 connected to router 22 using link 6422 at outport 23 lat 1
	 connected to router 23 using link 6423 at outport 24 lat 1
	 connected to router 24 using link 6424 at outport 25 lat 1
	 connected to router 25 using link 6425 at outport 26 lat 1
	 connected to router 26 using link 6426 at outport 27 lat 1
	 connected to router 27 using link 6427 at outport 28 lat 1
	 connected to router 28 using link 6428 at outport 29 lat 1
	 connected to router 29 using link 6429 at outport 30 lat 1
	 connected to router 30 using link 6430 at outport 31 lat 1
	 connected to router 31 using link 6431 at outport 32 lat 1
	 connected to router 32 using link 6432 at outport 33 lat 1
	 connected to router 33 using link 6433 at outport 34 lat 1
	 connected to router 34 using link 6434 at outport 35 lat 1
	 connected to router 35 using link 6435 at outport 36 lat 1
	 connected to router 36 using link 6436 at outport 37 lat 1
	 connected to router 37 using link 6437 at outport 38 lat 1
	 connected to router 38 using link 6438 at outport 39 lat 1
	 connected to router 39 using link 6439 at outport 40 lat 1
	 connected to router 40 using link 6440 at outport 41 lat 1
	 connected to router 41 using link 6441 at outport 42 lat 1
	 connected to router 42 using link 6442 at outport 43 lat 1
	 connected to router 43 using link 6443 at outport 44 lat 1
	 connected to router 44 using link 6444 at outport 45 lat 1
	 connected to router 45 using link 6445 at outport 46 lat 1
	 connected to router 46 using link 6446 at outport 47 lat 1
	 connected to router 47 using link 6447 at outport 48 lat 1
	 connected to router 48 using link 6448 at outport 49 lat 1
	 connected to router 49 using link 6449 at outport 50 lat 1
	 connected to router 50 using link 6450 at outport 51 lat 1
	 connected to router 51 using link 6451 at outport 52 lat 1
	 connected to router 52 using link 6452 at outport 53 lat 1
	 connected to router 53 using link 6453 at outport 54 lat 1
	 connected to router 54 using link 6454 at outport 55 lat 1
	 connected to router 55 using link 6455 at outport 56 lat 1
	 connected to router 56 using link 6456 at outport 57 lat 1
	 connected to router 57 using link 6457 at outport 58 lat 1
	 connected to router 58 using link 6458 at outport 59 lat 1
	 connected to router 59 using link 6459 at outport 60 lat 1
	 connected to router 60 using link 6460 at outport 61 lat 1
	 connected to router 61 using link 6461 at outport 62 lat 1
	 connected to router 62 using link 6462 at outport 63 lat 1
	 connected to router 63 using link 6463 at outport 64 lat 1
	 connected to router 64 using link 6464 at outport 65 lat 1
	 connected to router 65 using link 6465 at outport 66 lat 1
	 connected to router 66 using link 6466 at outport 67 lat 1
	 connected to router 67 using link 6467 at outport 68 lat 1
	 connected to router 68 using link 6468 at outport 69 lat 1
	 connected to router 69 using link 6469 at outport 70 lat 1
	 connected to router 70 using link 6470 at outport 71 lat 1
	 connected to router 71 using link 6471 at outport 72 lat 1
	 connected to router 72 using link 6472 at outport 73 lat 1
	 connected to router 73 using link 6473 at outport 74 lat 1
	 connected to router 74 using link 6474 at outport 75 lat 1
	 connected to router 75 using link 6475 at outport 76 lat 1
	 connected to router 76 using link 6476 at outport 77 lat 1
	 connected to router 77 using link 6477 at outport 78 lat 1
	 connected to router 78 using link 6478 at outport 79 lat 1
	 connected to router 79 using link 6479 at outport 80 lat 1
========================== Routing table  =====================
Class 0:
Packet latency average = 11.953
	minimum = 6
	maximum = 42
Network latency average = 11.953
	minimum = 6
	maximum = 42
Slowest packet = 551740
Flit latency average = 11.953
	minimum = 6
	maximum = 42
Slowest flit = 551740
Fragmentation average = 0
	minimum = 0
	maximum = 0
Injected packet rate average = 0.79924
	minimum = 0.7877 (at node 61)
	maximum = 0.8101 (at node 53)
Accepted packet rate average = 0.79826
	minimum = 0.7821 (at node 35)
	maximum = 0.8202 (at node 10)
Injected flit rate average = 0.79924
	minimum = 0.7877 (at node 61)
	maximum = 0.8101 (at node 53)
Accepted flit rate average= 0.79826
	minimum = 0.7821 (at node 35)
	maximum = 0.8202 (at node 10)
Injected packet length average = 1
Accepted packet length average = 1
Total in-flight flits = 793 (0 measured)
latency change    = 1
throughput change = 1
Class 0:
Packet latency average = 11.9546
	minimum = 6
	maximum = 42
Network latency average = 11.9546
	minimum = 6
	maximum = 42
Slowest packet = 551740
Flit latency average = 11.9546
	minimum = 6
	maximum = 42
Slowest flit = 551740
Fragmentation average = 0
	minimum = 0
	maximum = 0
Injected packet rate average = 0.799427
	minimum = 0.79245 (at node 70)
	maximum = 0.8071 (at node 19)
Accepted packet rate average = 0.79895
	minimum = 0.7851 (at node 80)
	maximum = 0.81635 (at node 60)
Injected flit rate average = 0.799427
	minimum = 0.79245 (at node 70)
	maximum = 0.8071 (at node 19)
Accepted flit rate average= 0.79895
	minimum = 0.7851 (at node 80)
	maximum = 0.81635 (at node 60)
Injected packet length average = 1
Accepted packet length average = 1
Total in-flight flits = 772 (0 measured)
latency change    = 0.000135429
throughput change = 0.000863015
Class 0:
Packet latency average = 11.9703
	minimum = 6
	maximum = 47
Network latency average = 11.9703
	minimum = 6
	maximum = 47
Slowest packet = 1827146
Flit latency average = 11.9703
	minimum = 6
	maximum = 47
Slowest flit = 1827146
Fragmentation average = 0
	minimum = 0
	maximum = 0
Injected packet rate average = 0.7996
	minimum = 0.7916 (at node 22)
	maximum = 0.8092 (at node 11)
Accepted packet rate average = 0.799601
	minimum = 0.7828 (at node 17)
	maximum = 0.8171 (at node 8)
Injected flit rate average = 0.7996
	minimum = 0.7916 (at node 22)
	maximum = 0.8092 (at node 11)
Accepted flit rate average= 0.799601
	minimum = 0.7828 (at node 17)
	maximum = 0.8171 (at node 8)
Injected packet length average = 1
Accepted packet length average = 1
Total in-flight flits = 771 (0 measured)
latency change    = 0.00131066
throughput change = 0.000814449
Warmed up ...Time used is 30000 cycles
Class 0:
Packet latency average = 11.9849
	minimum = 6
	maximum = 36
Network latency average = 11.9849
	minimum = 6
	maximum = 36
Slowest packet = 2588596
Flit latency average = 11.9855
	minimum = 6
	maximum = 36
Slowest flit = 2588596
Fragmentation average = 0
	minimum = 0
	maximum = 0
Injected packet rate average = 0.800304
	minimum = 0.7905 (at node 53)
	maximum = 0.8132 (at node 23)
Accepted packet rate average = 0.800236
	minimum = 0.7817 (at node 65)
	maximum = 0.8234 (at node 20)
Injected flit rate average = 0.800304
	minimum = 0.7905 (at node 53)
	maximum = 0.8132 (at node 23)
Accepted flit rate average= 0.800236
	minimum = 0.7817 (at node 65)
	maximum = 0.8234 (at node 20)
Injected packet length average = 1
Accepted packet length average = 1
Total in-flight flits = 826 (826 measured)
latency change    = 0.00121408
throughput change = 0.000792976
Class 0:
Packet latency average = 11.9774
	minimum = 6
	maximum = 37
Network latency average = 11.9774
	minimum = 6
	maximum = 37
Slowest packet = 2588609
Flit latency average = 11.9777
	minimum = 6
	maximum = 37
Slowest flit = 2588609
Fragmentation average = 0
	minimum = 0
	maximum = 0
Injected packet rate average = 0.800104
	minimum = 0.7931 (at node 53)
	maximum = 0.8073 (at node 60)
Accepted packet rate average = 0.800109
	minimum = 0.7817 (at node 1)
	maximum = 0.81285 (at node 33)
Injected flit rate average = 0.800104
	minimum = 0.7931 (at node 53)
	maximum = 0.8073 (at node 60)
Accepted flit rate average= 0.800109
	minimum = 0.7817 (at node 1)
	maximum = 0.81285 (at node 33)
Injected packet length average = 1
Accepted packet length average = 1
Total in-flight flits = 763 (763 measured)
latency change    = 0.000627207
throughput change = 0.000158929
Class 0:
Packet latency average = 11.9776
	minimum = 6
	maximum = 37
Network latency average = 11.9776
	minimum = 6
	maximum = 37
Slowest packet = 2588609
Flit latency average = 11.9778
	minimum = 6
	maximum = 37
Slowest flit = 2588609
Fragmentation average = 0
	minimum = 0
	maximum = 0
Injected packet rate average = 0.800285
	minimum = 0.795133 (at node 14)
	maximum = 0.805767 (at node 11)
Accepted packet rate average = 0.800283
	minimum = 0.787167 (at node 4)
	maximum = 0.810733 (at node 33)
Injected flit rate average = 0.800285
	minimum = 0.795133 (at node 14)
	maximum = 0.805767 (at node 11)
Accepted flit rate average= 0.800283
	minimum = 0.787167 (at node 4)
	maximum = 0.810733 (at node 33)
Injected packet length average = 1
Accepted packet length average = 1
Total in-flight flits = 777 (777 measured)
latency change    = 1.50448e-05
throughput change = 0.000217516
Draining all recorded packets ...
Draining remaining packets ...
Time taken is 60049 cycles
====== Overall Traffic Statistics ======
====== Traffic class 0 ======
Packet latency average = 11.9777 (1 samples)
	minimum = 6 (1 samples)
	maximum = 37 (1 samples)
Network latency average = 11.9777 (1 samples)
	minimum = 6 (1 samples)
	maximum = 37 (1 samples)
Flit latency average = 11.9782 (1 samples)
	minimum = 6 (1 samples)
	maximum = 37 (1 samples)
Fragmentation average = 0 (1 samples)
	minimum = 0 (1 samples)
	maximum = 0 (1 samples)
Injected packet rate average = 0.800285 (1 samples)
	minimum = 0.795133 (1 samples)
	maximum = 0.805767 (1 samples)
Accepted packet rate average = 0.800283 (1 samples)
	minimum = 0.787167 (1 samples)
	maximum = 0.810733 (1 samples)
Injected flit rate average = 0.800285 (1 samples)
	minimum = 0.795133 (1 samples)
	maximum = 0.805767 (1 samples)
Accepted flit rate average = 0.800283 (1 samples)
	minimum = 0.787167 (1 samples)
	maximum = 0.810733 (1 samples)
Injected packet size average = 1 (1 samples)
Accepted packet size average = 1 (1 samples)
Hops average = 1.98763 (1 samples)
Total run time 117.122
