BEGIN Configuration File: anynet_config_load02
// $Id: singleconfig 1535 2009-09-16 16:21:01Z dub $

// Copyright (c) 2007-2009, Trustees of The Leland Stanford Junior University
// All rights reserved.
// 
// Redistribution and use in source and binary forms, with or without 
// modification, are permitted provided that the following conditions are met:
// 
// Redistributions of source code must retain the above copyright notice, this 
// list of conditions and the following disclaimer.
// Redistributions in binary form must reproduce the above copyright notice, 
// this list of conditions and the following disclaimer in the documentation 
// and/or other materials provided with the distribution.
// Neither the name of the Stanford University nor the names of its contributors
// may be used to endorse or promote products derived from this software without
// specific prior written permission.
// 
// THIS SOFTWARE IS PROVIDED BY THE COPYRIGHT HOLDERS AND CONTRIBUTORS "AS IS" 
// AND ANY EXPRESS OR IMPLIED WARRANTIES, INCLUDING, BUT NOT LIMITED TO, THE 
// IMPLIED WARRANTIES OF MERCHANTABILITY AND FITNESS FOR A PARTICULAR PURPOSE 
// ARE DISCLAIMED. IN NO EVENT SHALL THE COPYRIGHT OWNER OR CONTRIBUTORS BE 
// LIABLE FOR ANY DIRECT, INDIRECT, INCIDENTAL, SPECIAL, EXEMPLARY, OR 
// CONSEQUENTIAL DAMAGES (INCLUDING, BUT NOT LIMITED TO, PROCUREMENT OF 
// SUBSTITUTE GOODS OR SERVICES; LOSS OF USE, DATA, OR PROFITS; OR BUSINESS 
// INTERRUPTION) HOWEVER CAUSED AND ON ANY THEORY OF LIABILITY, WHETHER IN 
// CONTRACT, STRICT LIABILITY, OR TORT (INCLUDING NEGLIGENCE OR OTHERWISE) 
// ARISING IN ANY WAY OUT OF THE USE OF THIS SOFTWARE, EVEN IF ADVISED OF THE 
// POSSIBILITY OF SUCH DAMAGE.

//A single cross 10X10 cross bar under injection mode

topology = anynet;
network_file = anynet_file;

//single flit   packets
packet_size = 1;

//7 cycles delay in each input-queued router
credit_delay   = 2;
routing_delay  = 2;
vc_alloc_delay = 1;
sw_alloc_delay = 1;
st_final_delay = 1;

// Input and output a crossbar is 1, and the speed of internal routers speedup of is 2 times of the channel transmission rate.
input_speedup     = 1;
output_speedup    = 1;
internal_speedup  = 2.0;

//The buffer of each port has 256 policy is that each VC has 5 flits in privacy and  the others are shared by all VCs.
vc_buf_size = 256;
private_buf_size = 5;
wait_for_tail_credit = 0;

//
// Router architecture
//
vc_allocator = separable_input_first;
sw_allocator = separable_input_first;
alloc_iters  = 1;

warmup_periods = 3;
sim_count          = 1;

sample_period  = 10000;

routing_function = min;
num_vcs     = 2;

priority = none;
traffic       = uniform;

injection_rate = 0.2;

injection_rate_uses_flits=1;


k  = 4;
n  = 1;

watch_out=-;;END Configuration File: anynet_config_load02
------------config-------------------
alloc_iters 1
batch_count 1
batch_size 1000
buf_size -1
c 1
channel_sweep 0
channel_width 128
class_priority 0
classes 1
credit_delay 2
deadlock_warn_timeout 256
fail_seed 0
feedback_aging_scale 1
feedback_offset 0
hold_switch_for_packet 0
in_ports 5
include_queuing 1
injection_rate_uses_flits 1
input_speedup 1
k 4
link_failures 0
max_held_slots -1
max_outstanding_requests 0
max_samples 10
measure_stats 1
n 1
noq 0
num_vcs 2
out_ports 5
output_buffer_size -1
output_delay 0
output_speedup 1
packet_size 1
packet_size_rate 1
pair_stats 0
perm_seed 0
print_activity 0
print_csv_results 0
private_buf_end_vc -1
private_buf_size 5
private_buf_start_vc -1
private_bufs -1
read_reply_begin_vc 8
read_reply_end_vc 13
read_reply_size 1
read_reply_subnet 0
read_request_begin_vc 0
read_request_end_vc 5
read_request_size 1
read_request_subnet 0
routing_delay 2
sample_period 10000
seed 0
sim_count 1
sim_power 0
spec_check_cred 1
spec_check_elig 1
spec_mask_by_reqs 0
speculative 0
st_final_delay 1
st_prepare_delay 0
subnets 1
sw_alloc_delay 1
use_noc_latency 1
use_read_write 0
vc_alloc_delay 1
vc_buf_size 256
vc_busy_when_full 0
vc_prioritize_empty 0
vc_priority_donation 0
vc_shuffle_requests 0
vct 0
viewer_trace 0
wait_for_tail_credit 0
warmup_periods 3
write_reply_begin_vc 10
write_reply_end_vc 15
write_reply_size 1
write_reply_subnet 0
write_request_begin_vc 2
write_request_end_vc 7
write_request_size 1
write_request_subnet 0
x 8
xr 1
y 8
yr 1
acc_stopping_thres 
acc_warmup_thres 
arb_type round_robin
buffer_policy private
channel_file 
class_priority 
fail_seed 
injection_process bernoulli
injection_rate 
latency_thres 
measure_stats 
network_file anynet_file
packet_size 
packet_size_rate 
perm_seed 
power_output_file pwr_tmp
priority none
private_buf_end_vc 
private_buf_size 
private_buf_start_vc 
read_reply_size 
read_request_size 
router iq
routing_function min
seed 
sent_packets_out 
sim_type latency
spec_sw_allocator prio
stats_out 
stopping_thres 
sw_allocator separable_input_first
tech_file 
topology anynet
traffic uniform
use_read_write 
vc_allocator separable_input_first
warmup_thres 
watch_file 
watch_flits 
watch_out -
watch_packets 
watch_transactions 
write_fraction 
write_reply_size 
write_request_size 
acc_stopping_thres 0.05
acc_warmup_thres 0.05
burst_alpha 0.5
burst_beta 0.5
burst_r1 -1
injection_rate 0.2
internal_speedup 2
latency_thres 500
stopping_thres 0.05
warmup_thres 0.05
write_fraction 0.5
========================Network File Parsed=================
******************node listing**********************
Node 0	Router 0
Node 1	Router 0
Node 2	Router 1
Node 3	Router 1
Node 4	Router 2
Node 5	Router 2
Node 6	Router 3
Node 7	Router 3
Node 8	Router 4
Node 9	Router 4
Node 10	Router 5
Node 11	Router 5
Node 12	Router 6
Node 13	Router 6
Node 14	Router 7
Node 15	Router 7
Node 16	Router 8
Node 17	Router 8
Node 18	Router 9
Node 19	Router 9
Node 20	Router 10
Node 21	Router 10
Node 22	Router 11
Node 23	Router 11
Node 24	Router 12
Node 25	Router 12
Node 26	Router 13
Node 27	Router 13
Node 28	Router 14
Node 29	Router 14
Node 30	Router 15
Node 31	Router 15
Node 32	Router 16
Node 33	Router 16
Node 34	Router 17
Node 35	Router 17
Node 36	Router 18
Node 37	Router 18
Node 38	Router 19
Node 39	Router 19
Node 40	Router 20
Node 41	Router 20
Node 42	Router 21
Node 43	Router 21
Node 44	Router 22
Node 45	Router 22
Node 46	Router 23
Node 47	Router 23
Node 48	Router 24
Node 49	Router 24
Node 50	Router 25
Node 51	Router 25
Node 52	Router 26
Node 53	Router 26
Node 54	Router 27
Node 55	Router 27
Node 56	Router 28
Node 57	Router 28
Node 58	Router 29
Node 59	Router 29
Node 60	Router 30
Node 61	Router 30
Node 62	Router 31
Node 63	Router 31
Node 64	Router 32
Node 65	Router 32
Node 66	Router 33
Node 67	Router 33
Node 68	Router 34
Node 69	Router 34
Node 70	Router 35
Node 71	Router 35
Node 72	Router 36
Node 73	Router 36
Node 74	Router 37
Node 75	Router 37
Node 76	Router 38
Node 77	Router 38
Node 78	Router 39
Node 79	Router 39
Node 80	Router 40
Node 81	Router 40
Node 82	Router 41
Node 83	Router 41
Node 84	Router 42
Node 85	Router 42
Node 86	Router 43
Node 87	Router 43
Node 88	Router 44
Node 89	Router 44
Node 90	Router 45
Node 91	Router 45
Node 92	Router 46
Node 93	Router 46
Node 94	Router 47
Node 95	Router 47
Node 96	Router 48
Node 97	Router 48
Node 98	Router 49
Node 99	Router 49
Node 100	Router 50
Node 101	Router 50
Node 102	Router 51
Node 103	Router 51
Node 104	Router 52
Node 105	Router 52
Node 106	Router 53
Node 107	Router 53
Node 108	Router 54
Node 109	Router 54
Node 110	Router 55
Node 111	Router 55
Node 112	Router 56
Node 113	Router 56
Node 114	Router 57
Node 115	Router 57
Node 116	Router 58
Node 117	Router 58
Node 118	Router 59
Node 119	Router 59
Node 120	Router 60
Node 121	Router 60
Node 122	Router 61
Node 123	Router 61
Node 124	Router 62
Node 125	Router 62
Node 126	Router 63
Node 127	Router 63
Node 128	Router 64
Node 129	Router 64
Node 130	Router 65
Node 131	Router 65
Node 132	Router 66
Node 133	Router 66
Node 134	Router 67
Node 135	Router 67
Node 136	Router 68
Node 137	Router 68
Node 138	Router 69
Node 139	Router 69
Node 140	Router 70
Node 141	Router 70
Node 142	Router 71
Node 143	Router 71
Node 144	Router 72
Node 145	Router 72
Node 146	Router 73
Node 147	Router 73
Node 148	Router 74
Node 149	Router 74
Node 150	Router 75
Node 151	Router 75
Node 152	Router 76
Node 153	Router 76
Node 154	Router 77
Node 155	Router 77
Node 156	Router 78
Node 157	Router 78
Node 158	Router 79
Node 159	Router 79
Node 160	Router 80
Node 161	Router 80
Node 162	Router 81
Node 163	Router 81
Node 164	Router 82
Node 165	Router 82
Node 166	Router 83
Node 167	Router 83
Node 168	Router 84
Node 169	Router 84
Node 170	Router 85
Node 171	Router 85
Node 172	Router 86
Node 173	Router 86
Node 174	Router 87
Node 175	Router 87
Node 176	Router 88
Node 177	Router 88
Node 178	Router 89
Node 179	Router 89
Node 180	Router 90
Node 181	Router 90
Node 182	Router 91
Node 183	Router 91
Node 184	Router 92
Node 185	Router 92
Node 186	Router 93
Node 187	Router 93
Node 188	Router 94
Node 189	Router 94
Node 190	Router 95
Node 191	Router 95
Node 192	Router 96
Node 193	Router 96
Node 194	Router 97
Node 195	Router 97
Node 196	Router 98
Node 197	Router 98
Node 198	Router 99
Node 199	Router 99
Node 200	Router 100
Node 201	Router 100
Node 202	Router 101
Node 203	Router 101
Node 204	Router 102
Node 205	Router 102
Node 206	Router 103
Node 207	Router 103
Node 208	Router 104
Node 209	Router 104
Node 210	Router 105
Node 211	Router 105
Node 212	Router 106
Node 213	Router 106
Node 214	Router 107
Node 215	Router 107
Node 216	Router 108
Node 217	Router 108
Node 218	Router 109
Node 219	Router 109
Node 220	Router 110
Node 221	Router 110
Node 222	Router 111
Node 223	Router 111
Node 224	Router 112
Node 225	Router 112
Node 226	Router 113
Node 227	Router 113
Node 228	Router 114
Node 229	Router 114
Node 230	Router 115
Node 231	Router 115
Node 232	Router 116
Node 233	Router 116
Node 234	Router 117
Node 235	Router 117
Node 236	Router 118
Node 237	Router 118
Node 238	Router 119
Node 239	Router 119
Node 240	Router 120
Node 241	Router 120
Node 242	Router 121
Node 243	Router 121
Node 244	Router 122
Node 245	Router 122
Node 246	Router 123
Node 247	Router 123
Node 248	Router 124
Node 249	Router 124
Node 250	Router 125
Node 251	Router 125
Node 252	Router 126
Node 253	Router 126
Node 254	Router 127
Node 255	Router 127
Node 256	Router 128
Node 257	Router 128
Node 258	Router 129
Node 259	Router 129
Node 260	Router 130
Node 261	Router 130
Node 262	Router 131
Node 263	Router 131
Node 264	Router 132
Node 265	Router 132
Node 266	Router 133
Node 267	Router 133
Node 268	Router 134
Node 269	Router 134
Node 270	Router 135
Node 271	Router 135
Node 272	Router 136
Node 273	Router 136
Node 274	Router 137
Node 275	Router 137
Node 276	Router 138
Node 277	Router 138
Node 278	Router 139
Node 279	Router 139
Node 280	Router 140
Node 281	Router 140
Node 282	Router 141
Node 283	Router 141
Node 284	Router 142
Node 285	Router 142
Node 286	Router 143
Node 287	Router 143
Node 288	Router 144
Node 289	Router 144
Node 290	Router 145
Node 291	Router 145
Node 292	Router 146
Node 293	Router 146
Node 294	Router 147
Node 295	Router 147
Node 296	Router 148
Node 297	Router 148
Node 298	Router 149
Node 299	Router 149
Node 300	Router 150
Node 301	Router 150
Node 302	Router 151
Node 303	Router 151
Node 304	Router 152
Node 305	Router 152
Node 306	Router 153
Node 307	Router 153
Node 308	Router 154
Node 309	Router 154
Node 310	Router 155
Node 311	Router 155
Node 312	Router 156
Node 313	Router 156
Node 314	Router 157
Node 315	Router 157
Node 316	Router 158
Node 317	Router 158
Node 318	Router 159
Node 319	Router 159
Node 320	Router 160
Node 321	Router 160
Node 322	Router 161
Node 323	Router 161
Node 324	Router 162
Node 325	Router 162
Node 326	Router 163
Node 327	Router 163
Node 328	Router 164
Node 329	Router 164
Node 330	Router 165
Node 331	Router 165
Node 332	Router 166
Node 333	Router 166
Node 334	Router 167
Node 335	Router 167
Node 336	Router 168
Node 337	Router 168
Node 338	Router 169
Node 339	Router 169
Node 340	Router 170
Node 341	Router 170
Node 342	Router 171
Node 343	Router 171
Node 344	Router 172
Node 345	Router 172
Node 346	Router 173
Node 347	Router 173
Node 348	Router 174
Node 349	Router 174
Node 350	Router 175
Node 351	Router 175
Node 352	Router 176
Node 353	Router 176
Node 354	Router 177
Node 355	Router 177
Node 356	Router 178
Node 357	Router 178
Node 358	Router 179
Node 359	Router 179
Node 360	Router 180
Node 361	Router 180
Node 362	Router 181
Node 363	Router 181
Node 364	Router 182
Node 365	Router 182
Node 366	Router 183
Node 367	Router 183
Node 368	Router 184
Node 369	Router 184
Node 370	Router 185
Node 371	Router 185
Node 372	Router 186
Node 373	Router 186
Node 374	Router 187
Node 375	Router 187
Node 376	Router 188
Node 377	Router 188
Node 378	Router 189
Node 379	Router 189
Node 380	Router 190
Node 381	Router 190
Node 382	Router 191
Node 383	Router 191
Node 384	Router 192
Node 385	Router 192
Node 386	Router 193
Node 387	Router 193
Node 388	Router 194
Node 389	Router 194
Node 390	Router 195
Node 391	Router 195
Node 392	Router 196
Node 393	Router 196
Node 394	Router 197
Node 395	Router 197
Node 396	Router 198
Node 397	Router 198
Node 398	Router 199
Node 399	Router 199
Node 400	Router 200
Node 401	Router 200
Node 402	Router 201
Node 403	Router 201
Node 404	Router 202
Node 405	Router 202
Node 406	Router 203
Node 407	Router 203
Node 408	Router 204
Node 409	Router 204
Node 410	Router 205
Node 411	Router 205
Node 412	Router 206
Node 413	Router 206
Node 414	Router 207
Node 415	Router 207
Node 416	Router 208
Node 417	Router 208
Node 418	Router 209
Node 419	Router 209
Node 420	Router 210
Node 421	Router 210
Node 422	Router 211
Node 423	Router 211
Node 424	Router 212
Node 425	Router 212
Node 426	Router 213
Node 427	Router 213
Node 428	Router 214
Node 429	Router 214
Node 430	Router 215
Node 431	Router 215
Node 432	Router 216
Node 433	Router 216
Node 434	Router 217
Node 435	Router 217
Node 436	Router 218
Node 437	Router 218
Node 438	Router 219
Node 439	Router 219
Node 440	Router 220
Node 441	Router 220
Node 442	Router 221
Node 443	Router 221
Node 444	Router 222
Node 445	Router 222
Node 446	Router 223
Node 447	Router 223
Node 448	Router 224
Node 449	Router 224
Node 450	Router 225
Node 451	Router 225
Node 452	Router 226
Node 453	Router 226
Node 454	Router 227
Node 455	Router 227
Node 456	Router 228
Node 457	Router 228
Node 458	Router 229
Node 459	Router 229
Node 460	Router 230
Node 461	Router 230
Node 462	Router 231
Node 463	Router 231
Node 464	Router 232
Node 465	Router 232
Node 466	Router 233
Node 467	Router 233
Node 468	Router 234
Node 469	Router 234
Node 470	Router 235
Node 471	Router 235
Node 472	Router 236
Node 473	Router 236
Node 474	Router 237
Node 475	Router 237
Node 476	Router 238
Node 477	Router 238
Node 478	Router 239
Node 479	Router 239
Node 480	Router 240
Node 481	Router 240
Node 482	Router 241
Node 483	Router 241
Node 484	Router 242
Node 485	Router 242
Node 486	Router 243
Node 487	Router 243
Node 488	Router 244
Node 489	Router 244
Node 490	Router 245
Node 491	Router 245
Node 492	Router 246
Node 493	Router 246
Node 494	Router 247
Node 495	Router 247
Node 496	Router 248
Node 497	Router 248
Node 498	Router 249
Node 499	Router 249
Node 500	Router 250
Node 501	Router 250
Node 502	Router 251
Node 503	Router 251
Node 504	Router 252
Node 505	Router 252
Node 506	Router 253
Node 507	Router 253
Node 508	Router 254
Node 509	Router 254
Node 510	Router 255
Node 511	Router 255
Node 512	Router 256
Node 513	Router 256
Node 514	Router 257
Node 515	Router 257
Node 516	Router 258
Node 517	Router 258
Node 518	Router 259
Node 519	Router 259
Node 520	Router 260
Node 521	Router 260
Node 522	Router 261
Node 523	Router 261
Node 524	Router 262
Node 525	Router 262
Node 526	Router 263
Node 527	Router 263
Node 528	Router 264
Node 529	Router 264
Node 530	Router 265
Node 531	Router 265
Node 532	Router 266
Node 533	Router 266
Node 534	Router 267
Node 535	Router 267
Node 536	Router 268
Node 537	Router 268
Node 538	Router 269
Node 539	Router 269
Node 540	Router 270
Node 541	Router 270
Node 542	Router 271
Node 543	Router 271
Node 544	Router 272
Node 545	Router 272
Node 546	Router 273
Node 547	Router 273
Node 548	Router 274
Node 549	Router 274
Node 550	Router 275
Node 551	Router 275
Node 552	Router 276
Node 553	Router 276
Node 554	Router 277
Node 555	Router 277
Node 556	Router 278
Node 557	Router 278
Node 558	Router 279
Node 559	Router 279
Node 560	Router 280
Node 561	Router 280
Node 562	Router 281
Node 563	Router 281
Node 564	Router 282
Node 565	Router 282
Node 566	Router 283
Node 567	Router 283
Node 568	Router 284
Node 569	Router 284
Node 570	Router 285
Node 571	Router 285
Node 572	Router 286
Node 573	Router 286
Node 574	Router 287
Node 575	Router 287
Node 576	Router 288
Node 577	Router 288
Node 578	Router 289
Node 579	Router 289
Node 580	Router 290
Node 581	Router 290
Node 582	Router 291
Node 583	Router 291
Node 584	Router 292
Node 585	Router 292
Node 586	Router 293
Node 587	Router 293
Node 588	Router 294
Node 589	Router 294
Node 590	Router 295
Node 591	Router 295
Node 592	Router 296
Node 593	Router 296
Node 594	Router 297
Node 595	Router 297
Node 596	Router 298
Node 597	Router 298
Node 598	Router 299
Node 599	Router 299
Node 600	Router 300
Node 601	Router 300
Node 602	Router 301
Node 603	Router 301
Node 604	Router 302
Node 605	Router 302
Node 606	Router 303
Node 607	Router 303
Node 608	Router 304
Node 609	Router 304
Node 610	Router 305
Node 611	Router 305
Node 612	Router 306
Node 613	Router 306
Node 614	Router 307
Node 615	Router 307
Node 616	Router 308
Node 617	Router 308
Node 618	Router 309
Node 619	Router 309
Node 620	Router 310
Node 621	Router 310
Node 622	Router 311
Node 623	Router 311
Node 624	Router 312
Node 625	Router 312
Node 626	Router 313
Node 627	Router 313
Node 628	Router 314
Node 629	Router 314
Node 630	Router 315
Node 631	Router 315
Node 632	Router 316
Node 633	Router 316
Node 634	Router 317
Node 635	Router 317
Node 636	Router 318
Node 637	Router 318
Node 638	Router 319
Node 639	Router 319
Node 640	Router 320
Node 641	Router 320
Node 642	Router 321
Node 643	Router 321
Node 644	Router 322
Node 645	Router 322
Node 646	Router 323
Node 647	Router 323
Node 648	Router 324
Node 649	Router 324
Node 650	Router 325
Node 651	Router 325
Node 652	Router 326
Node 653	Router 326
Node 654	Router 327
Node 655	Router 327
Node 656	Router 328
Node 657	Router 328
Node 658	Router 329
Node 659	Router 329
Node 660	Router 330
Node 661	Router 330
Node 662	Router 331
Node 663	Router 331
Node 664	Router 332
Node 665	Router 332
Node 666	Router 333
Node 667	Router 333
Node 668	Router 334
Node 669	Router 334
Node 670	Router 335
Node 671	Router 335
Node 672	Router 336
Node 673	Router 336
Node 674	Router 337
Node 675	Router 337
Node 676	Router 338
Node 677	Router 338
Node 678	Router 339
Node 679	Router 339
Node 680	Router 340
Node 681	Router 340
Node 682	Router 341
Node 683	Router 341
Node 684	Router 342
Node 685	Router 342
Node 686	Router 343
Node 687	Router 343
Node 688	Router 344
Node 689	Router 344
Node 690	Router 345
Node 691	Router 345
Node 692	Router 346
Node 693	Router 346
Node 694	Router 347
Node 695	Router 347
Node 696	Router 348
Node 697	Router 348
Node 698	Router 349
Node 699	Router 349
Node 700	Router 350
Node 701	Router 350
Node 702	Router 351
Node 703	Router 351
Node 704	Router 352
Node 705	Router 352
Node 706	Router 353
Node 707	Router 353
Node 708	Router 354
Node 709	Router 354
Node 710	Router 355
Node 711	Router 355
Node 712	Router 356
Node 713	Router 356
Node 714	Router 357
Node 715	Router 357
Node 716	Router 358
Node 717	Router 358
Node 718	Router 359
Node 719	Router 359
Node 720	Router 360
Node 721	Router 360
Node 722	Router 361
Node 723	Router 361
Node 724	Router 362
Node 725	Router 362
Node 726	Router 363
Node 727	Router 363
Node 728	Router 364
Node 729	Router 364
Node 730	Router 365
Node 731	Router 365
Node 732	Router 366
Node 733	Router 366
Node 734	Router 367
Node 735	Router 367
Node 736	Router 368
Node 737	Router 368
Node 738	Router 369
Node 739	Router 369
Node 740	Router 370
Node 741	Router 370
Node 742	Router 371
Node 743	Router 371
Node 744	Router 372
Node 745	Router 372
Node 746	Router 373
Node 747	Router 373
Node 748	Router 374
Node 749	Router 374
Node 750	Router 375
Node 751	Router 375
Node 752	Router 376
Node 753	Router 376
Node 754	Router 377
Node 755	Router 377
Node 756	Router 378
Node 757	Router 378
Node 758	Router 379
Node 759	Router 379
Node 760	Router 380
Node 761	Router 380
Node 762	Router 381
Node 763	Router 381
Node 764	Router 382
Node 765	Router 382
Node 766	Router 383
Node 767	Router 383
Node 768	Router 384
Node 769	Router 384
Node 770	Router 385
Node 771	Router 385
Node 772	Router 386
Node 773	Router 386
Node 774	Router 387
Node 775	Router 387
Node 776	Router 388
Node 777	Router 388
Node 778	Router 389
Node 779	Router 389
Node 780	Router 390
Node 781	Router 390
Node 782	Router 391
Node 783	Router 391
Node 784	Router 392
Node 785	Router 392
Node 786	Router 393
Node 787	Router 393
Node 788	Router 394
Node 789	Router 394
Node 790	Router 395
Node 791	Router 395
Node 792	Router 396
Node 793	Router 396
Node 794	Router 397
Node 795	Router 397
Node 796	Router 398
Node 797	Router 398
Node 798	Router 399
Node 799	Router 399
Node 800	Router 400
Node 801	Router 400
Node 802	Router 401
Node 803	Router 401
Node 804	Router 402
Node 805	Router 402
Node 806	Router 403
Node 807	Router 403
Node 808	Router 404
Node 809	Router 404
Node 810	Router 405
Node 811	Router 405
Node 812	Router 406
Node 813	Router 406
Node 814	Router 407
Node 815	Router 407
Node 816	Router 408
Node 817	Router 408
Node 818	Router 409
Node 819	Router 409
Node 820	Router 410
Node 821	Router 410
Node 822	Router 411
Node 823	Router 411
Node 824	Router 412
Node 825	Router 412
Node 826	Router 413
Node 827	Router 413
Node 828	Router 414
Node 829	Router 414
Node 830	Router 415
Node 831	Router 415
Node 832	Router 416
Node 833	Router 416
Node 834	Router 417
Node 835	Router 417
Node 836	Router 418
Node 837	Router 418
Node 838	Router 419
Node 839	Router 419
Node 840	Router 420
Node 841	Router 420
Node 842	Router 421
Node 843	Router 421
Node 844	Router 422
Node 845	Router 422
Node 846	Router 423
Node 847	Router 423
Node 848	Router 424
Node 849	Router 424
Node 850	Router 425
Node 851	Router 425
Node 852	Router 426
Node 853	Router 426
Node 854	Router 427
Node 855	Router 427
Node 856	Router 428
Node 857	Router 428
Node 858	Router 429
Node 859	Router 429
Node 860	Router 430
Node 861	Router 430
Node 862	Router 431
Node 863	Router 431
Node 864	Router 432
Node 865	Router 432
Node 866	Router 433
Node 867	Router 433
Node 868	Router 434
Node 869	Router 434
Node 870	Router 435
Node 871	Router 435
Node 872	Router 436
Node 873	Router 436
Node 874	Router 437
Node 875	Router 437
Node 876	Router 438
Node 877	Router 438
Node 878	Router 439
Node 879	Router 439
Node 880	Router 440
Node 881	Router 440
Node 882	Router 441
Node 883	Router 441
Node 884	Router 442
Node 885	Router 442
Node 886	Router 443
Node 887	Router 443
Node 888	Router 444
Node 889	Router 444
Node 890	Router 445
Node 891	Router 445
Node 892	Router 446
Node 893	Router 446
Node 894	Router 447
Node 895	Router 447
Node 896	Router 448
Node 897	Router 448
Node 898	Router 449
Node 899	Router 449
Node 900	Router 450
Node 901	Router 450
Node 902	Router 451
Node 903	Router 451
Node 904	Router 452
Node 905	Router 452
Node 906	Router 453
Node 907	Router 453
Node 908	Router 454
Node 909	Router 454
Node 910	Router 455
Node 911	Router 455
Node 912	Router 456
Node 913	Router 456
Node 914	Router 457
Node 915	Router 457
Node 916	Router 458
Node 917	Router 458
Node 918	Router 459
Node 919	Router 459
Node 920	Router 460
Node 921	Router 460
Node 922	Router 461
Node 923	Router 461
Node 924	Router 462
Node 925	Router 462
Node 926	Router 463
Node 927	Router 463
Node 928	Router 464
Node 929	Router 464
Node 930	Router 465
Node 931	Router 465
Node 932	Router 466
Node 933	Router 466
Node 934	Router 467
Node 935	Router 467
Node 936	Router 468
Node 937	Router 468
Node 938	Router 469
Node 939	Router 469
Node 940	Router 470
Node 941	Router 470
Node 942	Router 471
Node 943	Router 471
Node 944	Router 472
Node 945	Router 472
Node 946	Router 473
Node 947	Router 473
Node 948	Router 474
Node 949	Router 474
Node 950	Router 475
Node 951	Router 475
Node 952	Router 476
Node 953	Router 476
Node 954	Router 477
Node 955	Router 477
Node 956	Router 478
Node 957	Router 478
Node 958	Router 479
Node 959	Router 479
Node 960	Router 480
Node 961	Router 480
Node 962	Router 481
Node 963	Router 481
Node 964	Router 482
Node 965	Router 482
Node 966	Router 483
Node 967	Router 483
Node 968	Router 484
Node 969	Router 484
Node 970	Router 485
Node 971	Router 485
Node 972	Router 486
Node 973	Router 486
Node 974	Router 487
Node 975	Router 487
Node 976	Router 488
Node 977	Router 488
Node 978	Router 489
Node 979	Router 489
Node 980	Router 490
Node 981	Router 490
Node 982	Router 491
Node 983	Router 491
Node 984	Router 492
Node 985	Router 492
Node 986	Router 493
Node 987	Router 493
Node 988	Router 494
Node 989	Router 494
Node 990	Router 495
Node 991	Router 495
Node 992	Router 496
Node 993	Router 496
Node 994	Router 497
Node 995	Router 497
Node 996	Router 498
Node 997	Router 498
Node 998	Router 499
Node 999	Router 499
Node 1000	Router 500
Node 1001	Router 500
Node 1002	Router 501
Node 1003	Router 501
Node 1004	Router 502
Node 1005	Router 502
Node 1006	Router 503
Node 1007	Router 503
Node 1008	Router 504
Node 1009	Router 504
Node 1010	Router 505
Node 1011	Router 505
Node 1012	Router 506
Node 1013	Router 506
Node 1014	Router 507
Node 1015	Router 507
Node 1016	Router 508
Node 1017	Router 508
Node 1018	Router 509
Node 1019	Router 509
Node 1020	Router 510
Node 1021	Router 510
Node 1022	Router 511
Node 1023	Router 511
Node 1024	Router 512
Node 1025	Router 512
Node 1026	Router 513
Node 1027	Router 513
Node 1028	Router 514
Node 1029	Router 514
Node 1030	Router 515
Node 1031	Router 515
Node 1032	Router 516
Node 1033	Router 516
Node 1034	Router 517
Node 1035	Router 517
Node 1036	Router 518
Node 1037	Router 518
Node 1038	Router 519
Node 1039	Router 519
Node 1040	Router 520
Node 1041	Router 520
Node 1042	Router 521
Node 1043	Router 521
Node 1044	Router 522
Node 1045	Router 522
Node 1046	Router 523
Node 1047	Router 523
Node 1048	Router 524
Node 1049	Router 524
Node 1050	Router 525
Node 1051	Router 525
Node 1052	Router 526
Node 1053	Router 526
Node 1054	Router 527
Node 1055	Router 527
Node 1056	Router 528
Node 1057	Router 528
Node 1058	Router 529
Node 1059	Router 529
Node 1060	Router 530
Node 1061	Router 530
Node 1062	Router 531
Node 1063	Router 531
Node 1064	Router 532
Node 1065	Router 532
Node 1066	Router 533
Node 1067	Router 533
Node 1068	Router 534
Node 1069	Router 534
Node 1070	Router 535
Node 1071	Router 535
Node 1072	Router 536
Node 1073	Router 536
Node 1074	Router 537
Node 1075	Router 537
Node 1076	Router 538
Node 1077	Router 538
Node 1078	Router 539
Node 1079	Router 539
Node 1080	Router 540
Node 1081	Router 540
Node 1082	Router 541
Node 1083	Router 541
Node 1084	Router 542
Node 1085	Router 542
Node 1086	Router 543
Node 1087	Router 543
Node 1088	Router 544
Node 1089	Router 544
Node 1090	Router 545
Node 1091	Router 545
Node 1092	Router 546
Node 1093	Router 546
Node 1094	Router 547
Node 1095	Router 547
Node 1096	Router 548
Node 1097	Router 548
Node 1098	Router 549
Node 1099	Router 549
Node 1100	Router 550
Node 1101	Router 550
Node 1102	Router 551
Node 1103	Router 551
Node 1104	Router 552
Node 1105	Router 552
Node 1106	Router 553
Node 1107	Router 553
Node 1108	Router 554
Node 1109	Router 554
Node 1110	Router 555
Node 1111	Router 555
Node 1112	Router 556
Node 1113	Router 556
Node 1114	Router 557
Node 1115	Router 557
Node 1116	Router 558
Node 1117	Router 558
Node 1118	Router 559
Node 1119	Router 559
Node 1120	Router 560
Node 1121	Router 560
Node 1122	Router 561
Node 1123	Router 561
Node 1124	Router 562
Node 1125	Router 562
Node 1126	Router 563
Node 1127	Router 563
Node 1128	Router 564
Node 1129	Router 564
Node 1130	Router 565
Node 1131	Router 565
Node 1132	Router 566
Node 1133	Router 566
Node 1134	Router 567
Node 1135	Router 567
Node 1136	Router 568
Node 1137	Router 568
Node 1138	Router 569
Node 1139	Router 569
Node 1140	Router 570
Node 1141	Router 570
Node 1142	Router 571
Node 1143	Router 571
Node 1144	Router 572
Node 1145	Router 572
Node 1146	Router 573
Node 1147	Router 573
Node 1148	Router 574
Node 1149	Router 574
Node 1150	Router 575
Node 1151	Router 575
Node 1152	Router 576
Node 1153	Router 576
Node 1154	Router 577
Node 1155	Router 577
Node 1156	Router 578
Node 1157	Router 578
Node 1158	Router 579
Node 1159	Router 579
Node 1160	Router 580
Node 1161	Router 580
Node 1162	Router 581
Node 1163	Router 581
Node 1164	Router 582
Node 1165	Router 582
Node 1166	Router 583
Node 1167	Router 583
Node 1168	Router 584
Node 1169	Router 584
Node 1170	Router 585
Node 1171	Router 585
Node 1172	Router 586
Node 1173	Router 586
Node 1174	Router 587
Node 1175	Router 587
Node 1176	Router 588
Node 1177	Router 588
Node 1178	Router 589
Node 1179	Router 589
Node 1180	Router 590
Node 1181	Router 590
Node 1182	Router 591
Node 1183	Router 591
Node 1184	Router 592
Node 1185	Router 592
Node 1186	Router 593
Node 1187	Router 593
Node 1188	Router 594
Node 1189	Router 594
Node 1190	Router 595
Node 1191	Router 595
Node 1192	Router 596
Node 1193	Router 596
Node 1194	Router 597
Node 1195	Router 597
Node 1196	Router 598
Node 1197	Router 598
Node 1198	Router 599
Node 1199	Router 599
Node 1200	Router 600
Node 1201	Router 600
Node 1202	Router 601
Node 1203	Router 601
Node 1204	Router 602
Node 1205	Router 602
Node 1206	Router 603
Node 1207	Router 603
Node 1208	Router 604
Node 1209	Router 604
Node 1210	Router 605
Node 1211	Router 605
Node 1212	Router 606
Node 1213	Router 606
Node 1214	Router 607
Node 1215	Router 607
Node 1216	Router 608
Node 1217	Router 608
Node 1218	Router 609
Node 1219	Router 609
Node 1220	Router 610
Node 1221	Router 610
Node 1222	Router 611
Node 1223	Router 611
Node 1224	Router 612
Node 1225	Router 612
Node 1226	Router 613
Node 1227	Router 613
Node 1228	Router 614
Node 1229	Router 614
Node 1230	Router 615
Node 1231	Router 615
Node 1232	Router 616
Node 1233	Router 616
Node 1234	Router 617
Node 1235	Router 617
Node 1236	Router 618
Node 1237	Router 618
Node 1238	Router 619
Node 1239	Router 619
Node 1240	Router 620
Node 1241	Router 620
Node 1242	Router 621
Node 1243	Router 621
Node 1244	Router 622
Node 1245	Router 622
Node 1246	Router 623
Node 1247	Router 623
Node 1248	Router 624
Node 1249	Router 624
Node 1250	Router 625
Node 1251	Router 625
Node 1252	Router 626
Node 1253	Router 626
Node 1254	Router 627
Node 1255	Router 627
Node 1256	Router 628
Node 1257	Router 628
Node 1258	Router 629
Node 1259	Router 629
Node 1260	Router 630
Node 1261	Router 630
Node 1262	Router 631
Node 1263	Router 631
Node 1264	Router 632
Node 1265	Router 632
Node 1266	Router 633
Node 1267	Router 633
Node 1268	Router 634
Node 1269	Router 634
Node 1270	Router 635
Node 1271	Router 635
Node 1272	Router 636
Node 1273	Router 636
Node 1274	Router 637
Node 1275	Router 637
Node 1276	Router 638
Node 1277	Router 638
Node 1278	Router 639
Node 1279	Router 639
Node 1280	Router 640
Node 1281	Router 640
Node 1282	Router 641
Node 1283	Router 641
Node 1284	Router 642
Node 1285	Router 642
Node 1286	Router 643
Node 1287	Router 643
Node 1288	Router 644
Node 1289	Router 644
Node 1290	Router 645
Node 1291	Router 645
Node 1292	Router 646
Node 1293	Router 646
Node 1294	Router 647
Node 1295	Router 647
Node 1296	Router 648
Node 1297	Router 648
Node 1298	Router 649
Node 1299	Router 649
Node 1300	Router 650
Node 1301	Router 650
Node 1302	Router 651
Node 1303	Router 651
Node 1304	Router 652
Node 1305	Router 652
Node 1306	Router 653
Node 1307	Router 653
Node 1308	Router 654
Node 1309	Router 654
Node 1310	Router 655
Node 1311	Router 655
Node 1312	Router 656
Node 1313	Router 656
Node 1314	Router 657
Node 1315	Router 657
Node 1316	Router 658
Node 1317	Router 658
Node 1318	Router 659
Node 1319	Router 659
Node 1320	Router 660
Node 1321	Router 660
Node 1322	Router 661
Node 1323	Router 661
Node 1324	Router 662
Node 1325	Router 662
Node 1326	Router 663
Node 1327	Router 663
Node 1328	Router 664
Node 1329	Router 664
Node 1330	Router 665
Node 1331	Router 665
Node 1332	Router 666
Node 1333	Router 666
Node 1334	Router 667
Node 1335	Router 667
Node 1336	Router 668
Node 1337	Router 668
Node 1338	Router 669
Node 1339	Router 669
Node 1340	Router 670
Node 1341	Router 670
Node 1342	Router 671
Node 1343	Router 671
Node 1344	Router 672
Node 1345	Router 672
Node 1346	Router 673
Node 1347	Router 673
Node 1348	Router 674
Node 1349	Router 674
Node 1350	Router 675
Node 1351	Router 675
Node 1352	Router 676
Node 1353	Router 676
Node 1354	Router 677
Node 1355	Router 677
Node 1356	Router 678
Node 1357	Router 678
Node 1358	Router 679
Node 1359	Router 679
Node 1360	Router 680
Node 1361	Router 680
Node 1362	Router 681
Node 1363	Router 681
Node 1364	Router 682
Node 1365	Router 682
Node 1366	Router 683
Node 1367	Router 683
Node 1368	Router 684
Node 1369	Router 684
Node 1370	Router 685
Node 1371	Router 685
Node 1372	Router 686
Node 1373	Router 686
Node 1374	Router 687
Node 1375	Router 687
Node 1376	Router 688
Node 1377	Router 688
Node 1378	Router 689
Node 1379	Router 689
Node 1380	Router 690
Node 1381	Router 690
Node 1382	Router 691
Node 1383	Router 691
Node 1384	Router 692
Node 1385	Router 692
Node 1386	Router 693
Node 1387	Router 693
Node 1388	Router 694
Node 1389	Router 694
Node 1390	Router 695
Node 1391	Router 695
Node 1392	Router 696
Node 1393	Router 696
Node 1394	Router 697
Node 1395	Router 697
Node 1396	Router 698
Node 1397	Router 698
Node 1398	Router 699
Node 1399	Router 699
Node 1400	Router 700
Node 1401	Router 700
Node 1402	Router 701
Node 1403	Router 701
Node 1404	Router 702
Node 1405	Router 702
Node 1406	Router 703
Node 1407	Router 703
Node 1408	Router 704
Node 1409	Router 704
Node 1410	Router 705
Node 1411	Router 705
Node 1412	Router 706
Node 1413	Router 706
Node 1414	Router 707
Node 1415	Router 707
Node 1416	Router 708
Node 1417	Router 708
Node 1418	Router 709
Node 1419	Router 709
Node 1420	Router 710
Node 1421	Router 710
Node 1422	Router 711
Node 1423	Router 711
Node 1424	Router 712
Node 1425	Router 712
Node 1426	Router 713
Node 1427	Router 713
Node 1428	Router 714
Node 1429	Router 714
Node 1430	Router 715
Node 1431	Router 715
Node 1432	Router 716
Node 1433	Router 716
Node 1434	Router 717
Node 1435	Router 717
Node 1436	Router 718
Node 1437	Router 718
Node 1438	Router 719
Node 1439	Router 719
Node 1440	Router 720
Node 1441	Router 720
Node 1442	Router 721
Node 1443	Router 721
Node 1444	Router 722
Node 1445	Router 722
Node 1446	Router 723
Node 1447	Router 723
Node 1448	Router 724
Node 1449	Router 724
Node 1450	Router 725
Node 1451	Router 725
Node 1452	Router 726
Node 1453	Router 726
Node 1454	Router 727
Node 1455	Router 727
Node 1456	Router 728
Node 1457	Router 728
Node 1458	Router 729
Node 1459	Router 729
Node 1460	Router 730
Node 1461	Router 730
Node 1462	Router 731
Node 1463	Router 731
Node 1464	Router 732
Node 1465	Router 732
Node 1466	Router 733
Node 1467	Router 733
Node 1468	Router 734
Node 1469	Router 734
Node 1470	Router 735
Node 1471	Router 735
Node 1472	Router 736
Node 1473	Router 736
Node 1474	Router 737
Node 1475	Router 737
Node 1476	Router 738
Node 1477	Router 738
Node 1478	Router 739
Node 1479	Router 739
Node 1480	Router 740
Node 1481	Router 740
Node 1482	Router 741
Node 1483	Router 741
Node 1484	Router 742
Node 1485	Router 742
Node 1486	Router 743
Node 1487	Router 743
Node 1488	Router 744
Node 1489	Router 744
Node 1490	Router 745
Node 1491	Router 745
Node 1492	Router 746
Node 1493	Router 746
Node 1494	Router 747
Node 1495	Router 747
Node 1496	Router 748
Node 1497	Router 748
Node 1498	Router 749
Node 1499	Router 749
Node 1500	Router 750
Node 1501	Router 750
Node 1502	Router 751
Node 1503	Router 751
Node 1504	Router 752
Node 1505	Router 752
Node 1506	Router 753
Node 1507	Router 753
Node 1508	Router 754
Node 1509	Router 754
Node 1510	Router 755
Node 1511	Router 755
Node 1512	Router 756
Node 1513	Router 756
Node 1514	Router 757
Node 1515	Router 757
Node 1516	Router 758
Node 1517	Router 758
Node 1518	Router 759
Node 1519	Router 759
Node 1520	Router 760
Node 1521	Router 760
Node 1522	Router 761
Node 1523	Router 761
Node 1524	Router 762
Node 1525	Router 762
Node 1526	Router 763
Node 1527	Router 763
Node 1528	Router 764
Node 1529	Router 764
Node 1530	Router 765
Node 1531	Router 765
Node 1532	Router 766
Node 1533	Router 766
Node 1534	Router 767
Node 1535	Router 767
Node 1536	Router 768
Node 1537	Router 768
Node 1538	Router 769
Node 1539	Router 769
Node 1540	Router 770
Node 1541	Router 770
Node 1542	Router 771
Node 1543	Router 771
Node 1544	Router 772
Node 1545	Router 772
Node 1546	Router 773
Node 1547	Router 773
Node 1548	Router 774
Node 1549	Router 774
Node 1550	Router 775
Node 1551	Router 775
Node 1552	Router 776
Node 1553	Router 776
Node 1554	Router 777
Node 1555	Router 777
Node 1556	Router 778
Node 1557	Router 778
Node 1558	Router 779
Node 1559	Router 779
Node 1560	Router 780
Node 1561	Router 780
Node 1562	Router 781
Node 1563	Router 781
Node 1564	Router 782
Node 1565	Router 782
Node 1566	Router 783
Node 1567	Router 783
Node 1568	Router 784
Node 1569	Router 784
Node 1570	Router 785
Node 1571	Router 785
Node 1572	Router 786
Node 1573	Router 786
Node 1574	Router 787
Node 1575	Router 787
Node 1576	Router 788
Node 1577	Router 788
Node 1578	Router 789
Node 1579	Router 789
Node 1580	Router 790
Node 1581	Router 790
Node 1582	Router 791
Node 1583	Router 791
Node 1584	Router 792
Node 1585	Router 792
Node 1586	Router 793
Node 1587	Router 793
Node 1588	Router 794
Node 1589	Router 794
Node 1590	Router 795
Node 1591	Router 795
Node 1592	Router 796
Node 1593	Router 796
Node 1594	Router 797
Node 1595	Router 797
Node 1596	Router 798
Node 1597	Router 798
Node 1598	Router 799
Node 1599	Router 799
Node 1600	Router 800
Node 1601	Router 800
Node 1602	Router 801
Node 1603	Router 801
Node 1604	Router 802
Node 1605	Router 802
Node 1606	Router 803
Node 1607	Router 803
Node 1608	Router 804
Node 1609	Router 804
Node 1610	Router 805
Node 1611	Router 805
Node 1612	Router 806
Node 1613	Router 806
Node 1614	Router 807
Node 1615	Router 807
Node 1616	Router 808
Node 1617	Router 808
Node 1618	Router 809
Node 1619	Router 809
Node 1620	Router 810
Node 1621	Router 810
Node 1622	Router 811
Node 1623	Router 811
Node 1624	Router 812
Node 1625	Router 812
Node 1626	Router 813
Node 1627	Router 813
Node 1628	Router 814
Node 1629	Router 814
Node 1630	Router 815
Node 1631	Router 815
Node 1632	Router 816
Node 1633	Router 816
Node 1634	Router 817
Node 1635	Router 817
Node 1636	Router 818
Node 1637	Router 818
Node 1638	Router 819
Node 1639	Router 819
Node 1640	Router 820
Node 1641	Router 820
Node 1642	Router 821
Node 1643	Router 821
Node 1644	Router 822
Node 1645	Router 822
Node 1646	Router 823
Node 1647	Router 823
Node 1648	Router 824
Node 1649	Router 824
Node 1650	Router 825
Node 1651	Router 825
Node 1652	Router 826
Node 1653	Router 826
Node 1654	Router 827
Node 1655	Router 827
Node 1656	Router 828
Node 1657	Router 828
Node 1658	Router 829
Node 1659	Router 829
Node 1660	Router 830
Node 1661	Router 830
Node 1662	Router 831
Node 1663	Router 831
Node 1664	Router 832
Node 1665	Router 832
Node 1666	Router 833
Node 1667	Router 833
Node 1668	Router 834
Node 1669	Router 834
Node 1670	Router 835
Node 1671	Router 835
Node 1672	Router 836
Node 1673	Router 836
Node 1674	Router 837
Node 1675	Router 837
Node 1676	Router 838
Node 1677	Router 838
Node 1678	Router 839
Node 1679	Router 839
Node 1680	Router 840
Node 1681	Router 840
Node 1682	Router 841
Node 1683	Router 841
Node 1684	Router 842
Node 1685	Router 842
Node 1686	Router 843
Node 1687	Router 843
Node 1688	Router 844
Node 1689	Router 844
Node 1690	Router 845
Node 1691	Router 845
Node 1692	Router 846
Node 1693	Router 846
Node 1694	Router 847
Node 1695	Router 847
Node 1696	Router 848
Node 1697	Router 848
Node 1698	Router 849
Node 1699	Router 849
Node 1700	Router 850
Node 1701	Router 850
Node 1702	Router 851
Node 1703	Router 851
Node 1704	Router 852
Node 1705	Router 852
Node 1706	Router 853
Node 1707	Router 853
Node 1708	Router 854
Node 1709	Router 854
Node 1710	Router 855
Node 1711	Router 855
Node 1712	Router 856
Node 1713	Router 856
Node 1714	Router 857
Node 1715	Router 857
Node 1716	Router 858
Node 1717	Router 858
Node 1718	Router 859
Node 1719	Router 859
Node 1720	Router 860
Node 1721	Router 860
Node 1722	Router 861
Node 1723	Router 861
Node 1724	Router 862
Node 1725	Router 862
Node 1726	Router 863
Node 1727	Router 863
Node 1728	Router 864
Node 1729	Router 864
Node 1730	Router 865
Node 1731	Router 865
Node 1732	Router 866
Node 1733	Router 866
Node 1734	Router 867
Node 1735	Router 867
Node 1736	Router 868
Node 1737	Router 868
Node 1738	Router 869
Node 1739	Router 869
Node 1740	Router 870
Node 1741	Router 870
Node 1742	Router 871
Node 1743	Router 871
Node 1744	Router 872
Node 1745	Router 872
Node 1746	Router 873
Node 1747	Router 873
Node 1748	Router 874
Node 1749	Router 874
Node 1750	Router 875
Node 1751	Router 875
Node 1752	Router 876
Node 1753	Router 876
Node 1754	Router 877
Node 1755	Router 877
Node 1756	Router 878
Node 1757	Router 878
Node 1758	Router 879
Node 1759	Router 879
Node 1760	Router 880
Node 1761	Router 880
Node 1762	Router 881
Node 1763	Router 881
Node 1764	Router 882
Node 1765	Router 882
Node 1766	Router 883
Node 1767	Router 883
Node 1768	Router 884
Node 1769	Router 884
Node 1770	Router 885
Node 1771	Router 885
Node 1772	Router 886
Node 1773	Router 886
Node 1774	Router 887
Node 1775	Router 887
Node 1776	Router 888
Node 1777	Router 888
Node 1778	Router 889
Node 1779	Router 889
Node 1780	Router 890
Node 1781	Router 890
Node 1782	Router 891
Node 1783	Router 891
Node 1784	Router 892
Node 1785	Router 892
Node 1786	Router 893
Node 1787	Router 893
Node 1788	Router 894
Node 1789	Router 894
Node 1790	Router 895
Node 1791	Router 895
Node 1792	Router 896
Node 1793	Router 896
Node 1794	Router 897
Node 1795	Router 897
Node 1796	Router 898
Node 1797	Router 898
Node 1798	Router 899
Node 1799	Router 899
Node 1800	Router 900
Node 1801	Router 900
Node 1802	Router 901
Node 1803	Router 901
Node 1804	Router 902
Node 1805	Router 902
Node 1806	Router 903
Node 1807	Router 903
Node 1808	Router 904
Node 1809	Router 904
Node 1810	Router 905
Node 1811	Router 905
Node 1812	Router 906
Node 1813	Router 906
Node 1814	Router 907
Node 1815	Router 907
Node 1816	Router 908
Node 1817	Router 908
Node 1818	Router 909
Node 1819	Router 909
Node 1820	Router 910
Node 1821	Router 910
Node 1822	Router 911
Node 1823	Router 911
Node 1824	Router 912
Node 1825	Router 912
Node 1826	Router 913
Node 1827	Router 913
Node 1828	Router 914
Node 1829	Router 914
Node 1830	Router 915
Node 1831	Router 915
Node 1832	Router 916
Node 1833	Router 916
Node 1834	Router 917
Node 1835	Router 917
Node 1836	Router 918
Node 1837	Router 918
Node 1838	Router 919
Node 1839	Router 919
Node 1840	Router 920
Node 1841	Router 920
Node 1842	Router 921
Node 1843	Router 921
Node 1844	Router 922
Node 1845	Router 922
Node 1846	Router 923
Node 1847	Router 923
Node 1848	Router 924
Node 1849	Router 924
Node 1850	Router 925
Node 1851	Router 925
Node 1852	Router 926
Node 1853	Router 926
Node 1854	Router 927
Node 1855	Router 927
Node 1856	Router 928
Node 1857	Router 928
Node 1858	Router 929
Node 1859	Router 929
Node 1860	Router 930
Node 1861	Router 930
Node 1862	Router 931
Node 1863	Router 931
Node 1864	Router 932
Node 1865	Router 932
Node 1866	Router 933
Node 1867	Router 933
Node 1868	Router 934
Node 1869	Router 934
Node 1870	Router 935
Node 1871	Router 935
Node 1872	Router 936
Node 1873	Router 936
Node 1874	Router 937
Node 1875	Router 937
Node 1876	Router 938
Node 1877	Router 938
Node 1878	Router 939
Node 1879	Router 939
Node 1880	Router 940
Node 1881	Router 940
Node 1882	Router 941
Node 1883	Router 941
Node 1884	Router 942
Node 1885	Router 942
Node 1886	Router 943
Node 1887	Router 943
Node 1888	Router 944
Node 1889	Router 944
Node 1890	Router 945
Node 1891	Router 945
Node 1892	Router 946
Node 1893	Router 946
Node 1894	Router 947
Node 1895	Router 947
Node 1896	Router 948
Node 1897	Router 948
Node 1898	Router 949
Node 1899	Router 949
Node 1900	Router 950
Node 1901	Router 950
Node 1902	Router 951
Node 1903	Router 951
Node 1904	Router 952
Node 1905	Router 952
Node 1906	Router 953
Node 1907	Router 953
Node 1908	Router 954
Node 1909	Router 954
Node 1910	Router 955
Node 1911	Router 955
Node 1912	Router 956
Node 1913	Router 956
Node 1914	Router 957
Node 1915	Router 957
Node 1916	Router 958
Node 1917	Router 958
Node 1918	Router 959
Node 1919	Router 959
Node 1920	Router 960
Node 1921	Router 960
Node 1922	Router 961
Node 1923	Router 961
Node 1924	Router 962
Node 1925	Router 962
Node 1926	Router 963
Node 1927	Router 963
Node 1928	Router 964
Node 1929	Router 964
Node 1930	Router 965
Node 1931	Router 965
Node 1932	Router 966
Node 1933	Router 966
Node 1934	Router 967
Node 1935	Router 967
Node 1936	Router 968
Node 1937	Router 968
Node 1938	Router 969
Node 1939	Router 969
Node 1940	Router 970
Node 1941	Router 970
Node 1942	Router 971
Node 1943	Router 971
Node 1944	Router 972
Node 1945	Router 972
Node 1946	Router 973
Node 1947	Router 973
Node 1948	Router 974
Node 1949	Router 974
Node 1950	Router 975
Node 1951	Router 975
Node 1952	Router 976
Node 1953	Router 976
Node 1954	Router 977
Node 1955	Router 977
Node 1956	Router 978
Node 1957	Router 978
Node 1958	Router 979
Node 1959	Router 979
Node 1960	Router 980
Node 1961	Router 980
Node 1962	Router 981
Node 1963	Router 981
Node 1964	Router 982
Node 1965	Router 982
Node 1966	Router 983
Node 1967	Router 983
Node 1968	Router 984
Node 1969	Router 984
Node 1970	Router 985
Node 1971	Router 985
Node 1972	Router 986
Node 1973	Router 986
Node 1974	Router 987
Node 1975	Router 987
Node 1976	Router 988
Node 1977	Router 988
Node 1978	Router 989
Node 1979	Router 989
Node 1980	Router 990
Node 1981	Router 990
Node 1982	Router 991
Node 1983	Router 991
Node 1984	Router 992
Node 1985	Router 992
Node 1986	Router 993
Node 1987	Router 993
Node 1988	Router 994
Node 1989	Router 994
Node 1990	Router 995
Node 1991	Router 995
Node 1992	Router 996
Node 1993	Router 996
Node 1994	Router 997
Node 1995	Router 997
Node 1996	Router 998
Node 1997	Router 998
Node 1998	Router 999
Node 1999	Router 999
Node 2000	Router 1000
Node 2001	Router 1000
Node 2002	Router 1001
Node 2003	Router 1001
Node 2004	Router 1002
Node 2005	Router 1002
Node 2006	Router 1003
Node 2007	Router 1003
Node 2008	Router 1004
Node 2009	Router 1004
Node 2010	Router 1005
Node 2011	Router 1005
Node 2012	Router 1006
Node 2013	Router 1006
Node 2014	Router 1007
Node 2015	Router 1007
Node 2016	Router 1008
Node 2017	Router 1008
Node 2018	Router 1009
Node 2019	Router 1009
Node 2020	Router 1010
Node 2021	Router 1010
Node 2022	Router 1011
Node 2023	Router 1011
Node 2024	Router 1012
Node 2025	Router 1012
Node 2026	Router 1013
Node 2027	Router 1013
Node 2028	Router 1014
Node 2029	Router 1014
Node 2030	Router 1015
Node 2031	Router 1015
Node 2032	Router 1016
Node 2033	Router 1016
Node 2034	Router 1017
Node 2035	Router 1017
Node 2036	Router 1018
Node 2037	Router 1018
Node 2038	Router 1019
Node 2039	Router 1019
Node 2040	Router 1020
Node 2041	Router 1020
Node 2042	Router 1021
Node 2043	Router 1021
Node 2044	Router 1022
Node 2045	Router 1022
Node 2046	Router 1023
Node 2047	Router 1023
Node 2048	Router 1024
Node 2049	Router 1024
Node 2050	Router 1025
Node 2051	Router 1025
Node 2052	Router 1026
Node 2053	Router 1026
Node 2054	Router 1027
Node 2055	Router 1027
Node 2056	Router 1028
Node 2057	Router 1028
Node 2058	Router 1029
Node 2059	Router 1029
Node 2060	Router 1030
Node 2061	Router 1030
Node 2062	Router 1031
Node 2063	Router 1031
Node 2064	Router 1032
Node 2065	Router 1032
Node 2066	Router 1033
Node 2067	Router 1033
Node 2068	Router 1034
Node 2069	Router 1034
Node 2070	Router 1035
Node 2071	Router 1035
Node 2072	Router 1036
Node 2073	Router 1036
Node 2074	Router 1037
Node 2075	Router 1037
Node 2076	Router 1038
Node 2077	Router 1038
Node 2078	Router 1039
Node 2079	Router 1039
Node 2080	Router 1040
Node 2081	Router 1040
Node 2082	Router 1041
Node 2083	Router 1041
Node 2084	Router 1042
Node 2085	Router 1042
Node 2086	Router 1043
Node 2087	Router 1043
Node 2088	Router 1044
Node 2089	Router 1044
Node 2090	Router 1045
Node 2091	Router 1045
Node 2092	Router 1046
Node 2093	Router 1046
Node 2094	Router 1047
Node 2095	Router 1047
Node 2096	Router 1048
Node 2097	Router 1048
Node 2098	Router 1049
Node 2099	Router 1049
Node 2100	Router 1050
Node 2101	Router 1050
Node 2102	Router 1051
Node 2103	Router 1051
Node 2104	Router 1052
Node 2105	Router 1052
Node 2106	Router 1053
Node 2107	Router 1053
Node 2108	Router 1054
Node 2109	Router 1054
Node 2110	Router 1055
Node 2111	Router 1055
Node 2112	Router 1056
Node 2113	Router 1056
Node 2114	Router 1057
Node 2115	Router 1057
Node 2116	Router 1058
Node 2117	Router 1058
Node 2118	Router 1059
Node 2119	Router 1059
Node 2120	Router 1060
Node 2121	Router 1060
Node 2122	Router 1061
Node 2123	Router 1061
Node 2124	Router 1062
Node 2125	Router 1062
Node 2126	Router 1063
Node 2127	Router 1063
Node 2128	Router 1064
Node 2129	Router 1064
Node 2130	Router 1065
Node 2131	Router 1065
Node 2132	Router 1066
Node 2133	Router 1066
Node 2134	Router 1067
Node 2135	Router 1067
Node 2136	Router 1068
Node 2137	Router 1068
Node 2138	Router 1069
Node 2139	Router 1069
Node 2140	Router 1070
Node 2141	Router 1070
Node 2142	Router 1071
Node 2143	Router 1071
Node 2144	Router 1072
Node 2145	Router 1072
Node 2146	Router 1073
Node 2147	Router 1073
Node 2148	Router 1074
Node 2149	Router 1074
Node 2150	Router 1075
Node 2151	Router 1075
Node 2152	Router 1076
Node 2153	Router 1076
Node 2154	Router 1077
Node 2155	Router 1077
Node 2156	Router 1078
Node 2157	Router 1078
Node 2158	Router 1079
Node 2159	Router 1079
Node 2160	Router 1080
Node 2161	Router 1080
Node 2162	Router 1081
Node 2163	Router 1081
Node 2164	Router 1082
Node 2165	Router 1082
Node 2166	Router 1083
Node 2167	Router 1083
Node 2168	Router 1084
Node 2169	Router 1084
Node 2170	Router 1085
Node 2171	Router 1085
Node 2172	Router 1086
Node 2173	Router 1086
Node 2174	Router 1087
Node 2175	Router 1087
Node 2176	Router 1088
Node 2177	Router 1088
Node 2178	Router 1089
Node 2179	Router 1089
Node 2180	Router 1090
Node 2181	Router 1090
Node 2182	Router 1091
Node 2183	Router 1091
Node 2184	Router 1092
Node 2185	Router 1092
Node 2186	Router 1093
Node 2187	Router 1093
Node 2188	Router 1094
Node 2189	Router 1094
Node 2190	Router 1095
Node 2191	Router 1095
Node 2192	Router 1096
Node 2193	Router 1096
Node 2194	Router 1097
Node 2195	Router 1097
Node 2196	Router 1098
Node 2197	Router 1098
Node 2198	Router 1099
Node 2199	Router 1099
Node 2200	Router 1100
Node 2201	Router 1100
Node 2202	Router 1101
Node 2203	Router 1101
Node 2204	Router 1102
Node 2205	Router 1102
Node 2206	Router 1103
Node 2207	Router 1103
Node 2208	Router 1104
Node 2209	Router 1104
Node 2210	Router 1105
Node 2211	Router 1105
Node 2212	Router 1106
Node 2213	Router 1106
Node 2214	Router 1107
Node 2215	Router 1107
Node 2216	Router 1108
Node 2217	Router 1108
Node 2218	Router 1109
Node 2219	Router 1109
Node 2220	Router 1110
Node 2221	Router 1110
Node 2222	Router 1111
Node 2223	Router 1111
Node 2224	Router 1112
Node 2225	Router 1112
Node 2226	Router 1113
Node 2227	Router 1113
Node 2228	Router 1114
Node 2229	Router 1114
Node 2230	Router 1115
Node 2231	Router 1115
Node 2232	Router 1116
Node 2233	Router 1116
Node 2234	Router 1117
Node 2235	Router 1117
Node 2236	Router 1118
Node 2237	Router 1118
Node 2238	Router 1119
Node 2239	Router 1119
Node 2240	Router 1120
Node 2241	Router 1120
Node 2242	Router 1121
Node 2243	Router 1121
Node 2244	Router 1122
Node 2245	Router 1122
Node 2246	Router 1123
Node 2247	Router 1123
Node 2248	Router 1124
Node 2249	Router 1124
Node 2250	Router 1125
Node 2251	Router 1125
Node 2252	Router 1126
Node 2253	Router 1126
Node 2254	Router 1127
Node 2255	Router 1127
Node 2256	Router 1128
Node 2257	Router 1128
Node 2258	Router 1129
Node 2259	Router 1129
Node 2260	Router 1130
Node 2261	Router 1130
Node 2262	Router 1131
Node 2263	Router 1131
Node 2264	Router 1132
Node 2265	Router 1132
Node 2266	Router 1133
Node 2267	Router 1133
Node 2268	Router 1134
Node 2269	Router 1134
Node 2270	Router 1135
Node 2271	Router 1135
Node 2272	Router 1136
Node 2273	Router 1136
Node 2274	Router 1137
Node 2275	Router 1137
Node 2276	Router 1138
Node 2277	Router 1138
Node 2278	Router 1139
Node 2279	Router 1139
Node 2280	Router 1140
Node 2281	Router 1140
Node 2282	Router 1141
Node 2283	Router 1141
Node 2284	Router 1142
Node 2285	Router 1142
Node 2286	Router 1143
Node 2287	Router 1143
Node 2288	Router 1144
Node 2289	Router 1144
Node 2290	Router 1145
Node 2291	Router 1145
Node 2292	Router 1146
Node 2293	Router 1146
Node 2294	Router 1147
Node 2295	Router 1147
Node 2296	Router 1148
Node 2297	Router 1148
Node 2298	Router 1149
Node 2299	Router 1149
Node 2300	Router 1150
Node 2301	Router 1150
Node 2302	Router 1151
Node 2303	Router 1151
Node 2304	Router 1152
Node 2305	Router 1152
Node 2306	Router 1153
Node 2307	Router 1153
Node 2308	Router 1154
Node 2309	Router 1154
Node 2310	Router 1155
Node 2311	Router 1155
Node 2312	Router 1156
Node 2313	Router 1156
Node 2314	Router 1157
Node 2315	Router 1157
Node 2316	Router 1158
Node 2317	Router 1158
Node 2318	Router 1159
Node 2319	Router 1159
Node 2320	Router 1160
Node 2321	Router 1160
Node 2322	Router 1161
Node 2323	Router 1161
Node 2324	Router 1162
Node 2325	Router 1162
Node 2326	Router 1163
Node 2327	Router 1163
Node 2328	Router 1164
Node 2329	Router 1164
Node 2330	Router 1165
Node 2331	Router 1165
Node 2332	Router 1166
Node 2333	Router 1166
Node 2334	Router 1167
Node 2335	Router 1167
Node 2336	Router 1168
Node 2337	Router 1168
Node 2338	Router 1169
Node 2339	Router 1169
Node 2340	Router 1170
Node 2341	Router 1170
Node 2342	Router 1171
Node 2343	Router 1171
Node 2344	Router 1172
Node 2345	Router 1172
Node 2346	Router 1173
Node 2347	Router 1173
Node 2348	Router 1174
Node 2349	Router 1174
Node 2350	Router 1175
Node 2351	Router 1175
Node 2352	Router 1176
Node 2353	Router 1176
Node 2354	Router 1177
Node 2355	Router 1177
Node 2356	Router 1178
Node 2357	Router 1178
Node 2358	Router 1179
Node 2359	Router 1179
Node 2360	Router 1180
Node 2361	Router 1180
Node 2362	Router 1181
Node 2363	Router 1181
Node 2364	Router 1182
Node 2365	Router 1182
Node 2366	Router 1183
Node 2367	Router 1183
Node 2368	Router 1184
Node 2369	Router 1184
Node 2370	Router 1185
Node 2371	Router 1185
Node 2372	Router 1186
Node 2373	Router 1186
Node 2374	Router 1187
Node 2375	Router 1187
Node 2376	Router 1188
Node 2377	Router 1188
Node 2378	Router 1189
Node 2379	Router 1189
Node 2380	Router 1190
Node 2381	Router 1190
Node 2382	Router 1191
Node 2383	Router 1191
Node 2384	Router 1192
Node 2385	Router 1192
Node 2386	Router 1193
Node 2387	Router 1193
Node 2388	Router 1194
Node 2389	Router 1194
Node 2390	Router 1195
Node 2391	Router 1195
Node 2392	Router 1196
Node 2393	Router 1196
Node 2394	Router 1197
Node 2395	Router 1197
Node 2396	Router 1198
Node 2397	Router 1198
Node 2398	Router 1199
Node 2399	Router 1199
Node 2400	Router 1200
Node 2401	Router 1200
Node 2402	Router 1201
Node 2403	Router 1201
Node 2404	Router 1202
Node 2405	Router 1202
Node 2406	Router 1203
Node 2407	Router 1203
Node 2408	Router 1204
Node 2409	Router 1204
Node 2410	Router 1205
Node 2411	Router 1205
Node 2412	Router 1206
Node 2413	Router 1206
Node 2414	Router 1207
Node 2415	Router 1207
Node 2416	Router 1208
Node 2417	Router 1208
Node 2418	Router 1209
Node 2419	Router 1209
Node 2420	Router 1210
Node 2421	Router 1210
Node 2422	Router 1211
Node 2423	Router 1211
Node 2424	Router 1212
Node 2425	Router 1212
Node 2426	Router 1213
Node 2427	Router 1213
Node 2428	Router 1214
Node 2429	Router 1214
Node 2430	Router 1215
Node 2431	Router 1215
Node 2432	Router 1216
Node 2433	Router 1216
Node 2434	Router 1217
Node 2435	Router 1217
Node 2436	Router 1218
Node 2437	Router 1218
Node 2438	Router 1219
Node 2439	Router 1219
Node 2440	Router 1220
Node 2441	Router 1220
Node 2442	Router 1221
Node 2443	Router 1221
Node 2444	Router 1222
Node 2445	Router 1222
Node 2446	Router 1223
Node 2447	Router 1223
Node 2448	Router 1224
Node 2449	Router 1224
Node 2450	Router 1225
Node 2451	Router 1225
Node 2452	Router 1226
Node 2453	Router 1226
Node 2454	Router 1227
Node 2455	Router 1227
Node 2456	Router 1228
Node 2457	Router 1228
Node 2458	Router 1229
Node 2459	Router 1229
Node 2460	Router 1230
Node 2461	Router 1230
Node 2462	Router 1231
Node 2463	Router 1231
Node 2464	Router 1232
Node 2465	Router 1232
Node 2466	Router 1233
Node 2467	Router 1233
Node 2468	Router 1234
Node 2469	Router 1234
Node 2470	Router 1235
Node 2471	Router 1235
Node 2472	Router 1236
Node 2473	Router 1236
Node 2474	Router 1237
Node 2475	Router 1237
Node 2476	Router 1238
Node 2477	Router 1238
Node 2478	Router 1239
Node 2479	Router 1239
Node 2480	Router 1240
Node 2481	Router 1240
Node 2482	Router 1241
Node 2483	Router 1241
Node 2484	Router 1242
Node 2485	Router 1242
Node 2486	Router 1243
Node 2487	Router 1243
Node 2488	Router 1244
Node 2489	Router 1244
Node 2490	Router 1245
Node 2491	Router 1245
Node 2492	Router 1246
Node 2493	Router 1246
Node 2494	Router 1247
Node 2495	Router 1247
Node 2496	Router 1248
Node 2497	Router 1248
Node 2498	Router 1249
Node 2499	Router 1249
Node 2500	Router 1250
Node 2501	Router 1250
Node 2502	Router 1251
Node 2503	Router 1251
Node 2504	Router 1252
Node 2505	Router 1252
Node 2506	Router 1253
Node 2507	Router 1253
Node 2508	Router 1254
Node 2509	Router 1254
Node 2510	Router 1255
Node 2511	Router 1255
Node 2512	Router 1256
Node 2513	Router 1256
Node 2514	Router 1257
Node 2515	Router 1257
Node 2516	Router 1258
Node 2517	Router 1258
Node 2518	Router 1259
Node 2519	Router 1259
Node 2520	Router 1260
Node 2521	Router 1260
Node 2522	Router 1261
Node 2523	Router 1261
Node 2524	Router 1262
Node 2525	Router 1262
Node 2526	Router 1263
Node 2527	Router 1263
Node 2528	Router 1264
Node 2529	Router 1264
Node 2530	Router 1265
Node 2531	Router 1265
Node 2532	Router 1266
Node 2533	Router 1266
Node 2534	Router 1267
Node 2535	Router 1267
Node 2536	Router 1268
Node 2537	Router 1268
Node 2538	Router 1269
Node 2539	Router 1269
Node 2540	Router 1270
Node 2541	Router 1270
Node 2542	Router 1271
Node 2543	Router 1271
Node 2544	Router 1272
Node 2545	Router 1272
Node 2546	Router 1273
Node 2547	Router 1273
Node 2548	Router 1274
Node 2549	Router 1274
Node 2550	Router 1275
Node 2551	Router 1275
Node 2552	Router 1276
Node 2553	Router 1276
Node 2554	Router 1277
Node 2555	Router 1277
Node 2556	Router 1278
Node 2557	Router 1278
Node 2558	Router 1279
Node 2559	Router 1279
Node 2560	Router 1280
Node 2561	Router 1280
Node 2562	Router 1281
Node 2563	Router 1281
Node 2564	Router 1282
Node 2565	Router 1282
Node 2566	Router 1283
Node 2567	Router 1283
Node 2568	Router 1284
Node 2569	Router 1284
Node 2570	Router 1285
Node 2571	Router 1285
Node 2572	Router 1286
Node 2573	Router 1286
Node 2574	Router 1287
Node 2575	Router 1287
Node 2576	Router 1288
Node 2577	Router 1288
Node 2578	Router 1289
Node 2579	Router 1289
Node 2580	Router 1290
Node 2581	Router 1290
Node 2582	Router 1291
Node 2583	Router 1291
Node 2584	Router 1292
Node 2585	Router 1292
Node 2586	Router 1293
Node 2587	Router 1293
Node 2588	Router 1294
Node 2589	Router 1294
Node 2590	Router 1295
Node 2591	Router 1295
Node 2592	Router 1296
Node 2593	Router 1296
Node 2594	Router 1297
Node 2595	Router 1297
Node 2596	Router 1298
Node 2597	Router 1298
Node 2598	Router 1299
Node 2599	Router 1299
Node 2600	Router 1300
Node 2601	Router 1300
Node 2602	Router 1301
Node 2603	Router 1301
Node 2604	Router 1302
Node 2605	Router 1302
Node 2606	Router 1303
Node 2607	Router 1303
Node 2608	Router 1304
Node 2609	Router 1304
Node 2610	Router 1305
Node 2611	Router 1305
Node 2612	Router 1306
Node 2613	Router 1306
Node 2614	Router 1307
Node 2615	Router 1307
Node 2616	Router 1308
Node 2617	Router 1308
Node 2618	Router 1309
Node 2619	Router 1309
Node 2620	Router 1310
Node 2621	Router 1310
Node 2622	Router 1311
Node 2623	Router 1311
Node 2624	Router 1312
Node 2625	Router 1312
Node 2626	Router 1313
Node 2627	Router 1313
Node 2628	Router 1314
Node 2629	Router 1314
Node 2630	Router 1315
Node 2631	Router 1315
Node 2632	Router 1316
Node 2633	Router 1316
Node 2634	Router 1317
Node 2635	Router 1317
Node 2636	Router 1318
Node 2637	Router 1318
Node 2638	Router 1319
Node 2639	Router 1319
Node 2640	Router 1320
Node 2641	Router 1320
Node 2642	Router 1321
Node 2643	Router 1321
Node 2644	Router 1322
Node 2645	Router 1322
Node 2646	Router 1323
Node 2647	Router 1323
Node 2648	Router 1324
Node 2649	Router 1324
Node 2650	Router 1325
Node 2651	Router 1325
Node 2652	Router 1326
Node 2653	Router 1326
Node 2654	Router 1327
Node 2655	Router 1327
Node 2656	Router 1328
Node 2657	Router 1328
Node 2658	Router 1329
Node 2659	Router 1329
Node 2660	Router 1330
Node 2661	Router 1330
Node 2662	Router 1331
Node 2663	Router 1331
Node 2664	Router 1332
Node 2665	Router 1332
Node 2666	Router 1333
Node 2667	Router 1333
Node 2668	Router 1334
Node 2669	Router 1334
Node 2670	Router 1335
Node 2671	Router 1335
Node 2672	Router 1336
Node 2673	Router 1336
Node 2674	Router 1337
Node 2675	Router 1337
Node 2676	Router 1338
Node 2677	Router 1338
Node 2678	Router 1339
Node 2679	Router 1339
Node 2680	Router 1340
Node 2681	Router 1340
Node 2682	Router 1341
Node 2683	Router 1341
Node 2684	Router 1342
Node 2685	Router 1342
Node 2686	Router 1343
Node 2687	Router 1343
Node 2688	Router 1344
Node 2689	Router 1344
Node 2690	Router 1345
Node 2691	Router 1345
Node 2692	Router 1346
Node 2693	Router 1346
Node 2694	Router 1347
Node 2695	Router 1347
Node 2696	Router 1348
Node 2697	Router 1348
Node 2698	Router 1349
Node 2699	Router 1349
Node 2700	Router 1350
Node 2701	Router 1350
Node 2702	Router 1351
Node 2703	Router 1351
Node 2704	Router 1352
Node 2705	Router 1352
Node 2706	Router 1353
Node 2707	Router 1353
Node 2708	Router 1354
Node 2709	Router 1354
Node 2710	Router 1355
Node 2711	Router 1355
Node 2712	Router 1356
Node 2713	Router 1356
Node 2714	Router 1357
Node 2715	Router 1357
Node 2716	Router 1358
Node 2717	Router 1358
Node 2718	Router 1359
Node 2719	Router 1359
Node 2720	Router 1360
Node 2721	Router 1360
Node 2722	Router 1361
Node 2723	Router 1361
Node 2724	Router 1362
Node 2725	Router 1362
Node 2726	Router 1363
Node 2727	Router 1363
Node 2728	Router 1364
Node 2729	Router 1364
Node 2730	Router 1365
Node 2731	Router 1365
Node 2732	Router 1366
Node 2733	Router 1366
Node 2734	Router 1367
Node 2735	Router 1367
Node 2736	Router 1368
Node 2737	Router 1368
Node 2738	Router 1369
Node 2739	Router 1369
Node 2740	Router 1370
Node 2741	Router 1370
Node 2742	Router 1371
Node 2743	Router 1371
Node 2744	Router 1372
Node 2745	Router 1372
Node 2746	Router 1373
Node 2747	Router 1373
Node 2748	Router 1374
Node 2749	Router 1374
Node 2750	Router 1375
Node 2751	Router 1375
Node 2752	Router 1376
Node 2753	Router 1376
Node 2754	Router 1377
Node 2755	Router 1377
Node 2756	Router 1378
Node 2757	Router 1378
Node 2758	Router 1379
Node 2759	Router 1379
Node 2760	Router 1380
Node 2761	Router 1380
Node 2762	Router 1381
Node 2763	Router 1381
Node 2764	Router 1382
Node 2765	Router 1382
Node 2766	Router 1383
Node 2767	Router 1383
Node 2768	Router 1384
Node 2769	Router 1384
Node 2770	Router 1385
Node 2771	Router 1385
Node 2772	Router 1386
Node 2773	Router 1386
Node 2774	Router 1387
Node 2775	Router 1387
Node 2776	Router 1388
Node 2777	Router 1388
Node 2778	Router 1389
Node 2779	Router 1389
Node 2780	Router 1390
Node 2781	Router 1390
Node 2782	Router 1391
Node 2783	Router 1391
Node 2784	Router 1392
Node 2785	Router 1392
Node 2786	Router 1393
Node 2787	Router 1393
Node 2788	Router 1394
Node 2789	Router 1394
Node 2790	Router 1395
Node 2791	Router 1395
Node 2792	Router 1396
Node 2793	Router 1396
Node 2794	Router 1397
Node 2795	Router 1397
Node 2796	Router 1398
Node 2797	Router 1398
Node 2798	Router 1399
Node 2799	Router 1399
Node 2800	Router 1400
Node 2801	Router 1400
Node 2802	Router 1401
Node 2803	Router 1401
Node 2804	Router 1402
Node 2805	Router 1402
Node 2806	Router 1403
Node 2807	Router 1403
Node 2808	Router 1404
Node 2809	Router 1404
Node 2810	Router 1405
Node 2811	Router 1405
Node 2812	Router 1406
Node 2813	Router 1406
Node 2814	Router 1407
Node 2815	Router 1407
Node 2816	Router 1408
Node 2817	Router 1408
Node 2818	Router 1409
Node 2819	Router 1409
Node 2820	Router 1410
Node 2821	Router 1410
Node 2822	Router 1411
Node 2823	Router 1411
Node 2824	Router 1412
Node 2825	Router 1412
Node 2826	Router 1413
Node 2827	Router 1413
Node 2828	Router 1414
Node 2829	Router 1414
Node 2830	Router 1415
Node 2831	Router 1415
Node 2832	Router 1416
Node 2833	Router 1416
Node 2834	Router 1417
Node 2835	Router 1417
Node 2836	Router 1418
Node 2837	Router 1418
Node 2838	Router 1419
Node 2839	Router 1419
Node 2840	Router 1420
Node 2841	Router 1420
Node 2842	Router 1421
Node 2843	Router 1421
Node 2844	Router 1422
Node 2845	Router 1422
Node 2846	Router 1423
Node 2847	Router 1423
Node 2848	Router 1424
Node 2849	Router 1424
Node 2850	Router 1425
Node 2851	Router 1425
Node 2852	Router 1426
Node 2853	Router 1426
Node 2854	Router 1427
Node 2855	Router 1427
Node 2856	Router 1428
Node 2857	Router 1428
Node 2858	Router 1429
Node 2859	Router 1429
Node 2860	Router 1430
Node 2861	Router 1430
Node 2862	Router 1431
Node 2863	Router 1431
Node 2864	Router 1432
Node 2865	Router 1432
Node 2866	Router 1433
Node 2867	Router 1433
Node 2868	Router 1434
Node 2869	Router 1434
Node 2870	Router 1435
Node 2871	Router 1435
Node 2872	Router 1436
Node 2873	Router 1436
Node 2874	Router 1437
Node 2875	Router 1437
Node 2876	Router 1438
Node 2877	Router 1438
Node 2878	Router 1439
Node 2879	Router 1439
Node 2880	Router 1440
Node 2881	Router 1440
Node 2882	Router 1441
Node 2883	Router 1441
Node 2884	Router 1442
Node 2885	Router 1442
Node 2886	Router 1443
Node 2887	Router 1443
Node 2888	Router 1444
Node 2889	Router 1444
Node 2890	Router 1445
Node 2891	Router 1445
Node 2892	Router 1446
Node 2893	Router 1446
Node 2894	Router 1447
Node 2895	Router 1447
Node 2896	Router 1448
Node 2897	Router 1448
Node 2898	Router 1449
Node 2899	Router 1449
Node 2900	Router 1450
Node 2901	Router 1450
Node 2902	Router 1451
Node 2903	Router 1451
Node 2904	Router 1452
Node 2905	Router 1452
Node 2906	Router 1453
Node 2907	Router 1453
Node 2908	Router 1454
Node 2909	Router 1454
Node 2910	Router 1455
Node 2911	Router 1455
Node 2912	Router 1456
Node 2913	Router 1456
Node 2914	Router 1457
Node 2915	Router 1457
Node 2916	Router 1458
Node 2917	Router 1458
Node 2918	Router 1459
Node 2919	Router 1459
Node 2920	Router 1460
Node 2921	Router 1460
Node 2922	Router 1461
Node 2923	Router 1461
Node 2924	Router 1462
Node 2925	Router 1462
Node 2926	Router 1463
Node 2927	Router 1463
Node 2928	Router 1464
Node 2929	Router 1464
Node 2930	Router 1465
Node 2931	Router 1465
Node 2932	Router 1466
Node 2933	Router 1466
Node 2934	Router 1467
Node 2935	Router 1467
Node 2936	Router 1468
Node 2937	Router 1468
Node 2938	Router 1469
Node 2939	Router 1469
Node 2940	Router 1470
Node 2941	Router 1470
Node 2942	Router 1471
Node 2943	Router 1471
Node 2944	Router 1472
Node 2945	Router 1472
Node 2946	Router 1473
Node 2947	Router 1473
Node 2948	Router 1474
Node 2949	Router 1474
Node 2950	Router 1475
Node 2951	Router 1475
Node 2952	Router 1476
Node 2953	Router 1476
Node 2954	Router 1477
Node 2955	Router 1477
Node 2956	Router 1478
Node 2957	Router 1478
Node 2958	Router 1479
Node 2959	Router 1479
Node 2960	Router 1480
Node 2961	Router 1480
Node 2962	Router 1481
Node 2963	Router 1481
Node 2964	Router 1482
Node 2965	Router 1482
Node 2966	Router 1483
Node 2967	Router 1483
Node 2968	Router 1484
Node 2969	Router 1484
Node 2970	Router 1485
Node 2971	Router 1485
Node 2972	Router 1486
Node 2973	Router 1486
Node 2974	Router 1487
Node 2975	Router 1487
Node 2976	Router 1488
Node 2977	Router 1488
Node 2978	Router 1489
Node 2979	Router 1489
Node 2980	Router 1490
Node 2981	Router 1490
Node 2982	Router 1491
Node 2983	Router 1491
Node 2984	Router 1492
Node 2985	Router 1492
Node 2986	Router 1493
Node 2987	Router 1493
Node 2988	Router 1494
Node 2989	Router 1494
Node 2990	Router 1495
Node 2991	Router 1495
Node 2992	Router 1496
Node 2993	Router 1496
Node 2994	Router 1497
Node 2995	Router 1497
Node 2996	Router 1498
Node 2997	Router 1498
Node 2998	Router 1499
Node 2999	Router 1499
Node 3000	Router 1500
Node 3001	Router 1500
Node 3002	Router 1501
Node 3003	Router 1501
Node 3004	Router 1502
Node 3005	Router 1502
Node 3006	Router 1503
Node 3007	Router 1503
Node 3008	Router 1504
Node 3009	Router 1504
Node 3010	Router 1505
Node 3011	Router 1505
Node 3012	Router 1506
Node 3013	Router 1506
Node 3014	Router 1507
Node 3015	Router 1507
Node 3016	Router 1508
Node 3017	Router 1508
Node 3018	Router 1509
Node 3019	Router 1509
Node 3020	Router 1510
Node 3021	Router 1510
Node 3022	Router 1511
Node 3023	Router 1511
Node 3024	Router 1512
Node 3025	Router 1512
Node 3026	Router 1513
Node 3027	Router 1513
Node 3028	Router 1514
Node 3029	Router 1514
Node 3030	Router 1515
Node 3031	Router 1515
Node 3032	Router 1516
Node 3033	Router 1516
Node 3034	Router 1517
Node 3035	Router 1517
Node 3036	Router 1518
Node 3037	Router 1518
Node 3038	Router 1519
Node 3039	Router 1519
Node 3040	Router 1520
Node 3041	Router 1520
Node 3042	Router 1521
Node 3043	Router 1521
Node 3044	Router 1522
Node 3045	Router 1522
Node 3046	Router 1523
Node 3047	Router 1523
Node 3048	Router 1524
Node 3049	Router 1524
Node 3050	Router 1525
Node 3051	Router 1525
Node 3052	Router 1526
Node 3053	Router 1526
Node 3054	Router 1527
Node 3055	Router 1527
Node 3056	Router 1528
Node 3057	Router 1528
Node 3058	Router 1529
Node 3059	Router 1529
Node 3060	Router 1530
Node 3061	Router 1530
Node 3062	Router 1531
Node 3063	Router 1531
Node 3064	Router 1532
Node 3065	Router 1532
Node 3066	Router 1533
Node 3067	Router 1533
Node 3068	Router 1534
Node 3069	Router 1534
Node 3070	Router 1535
Node 3071	Router 1535
Node 3072	Router 1536
Node 3073	Router 1536
Node 3074	Router 1537
Node 3075	Router 1537
Node 3076	Router 1538
Node 3077	Router 1538
Node 3078	Router 1539
Node 3079	Router 1539
Node 3080	Router 1540
Node 3081	Router 1540
Node 3082	Router 1541
Node 3083	Router 1541
Node 3084	Router 1542
Node 3085	Router 1542
Node 3086	Router 1543
Node 3087	Router 1543
Node 3088	Router 1544
Node 3089	Router 1544
Node 3090	Router 1545
Node 3091	Router 1545
Node 3092	Router 1546
Node 3093	Router 1546
Node 3094	Router 1547
Node 3095	Router 1547
Node 3096	Router 1548
Node 3097	Router 1548
Node 3098	Router 1549
Node 3099	Router 1549
Node 3100	Router 1550
Node 3101	Router 1550
Node 3102	Router 1551
Node 3103	Router 1551
Node 3104	Router 1552
Node 3105	Router 1552
Node 3106	Router 1553
Node 3107	Router 1553
Node 3108	Router 1554
Node 3109	Router 1554
Node 3110	Router 1555
Node 3111	Router 1555
Node 3112	Router 1556
Node 3113	Router 1556
Node 3114	Router 1557
Node 3115	Router 1557
Node 3116	Router 1558
Node 3117	Router 1558
Node 3118	Router 1559
Node 3119	Router 1559
Node 3120	Router 1560
Node 3121	Router 1560
Node 3122	Router 1561
Node 3123	Router 1561
Node 3124	Router 1562
Node 3125	Router 1562
Node 3126	Router 1563
Node 3127	Router 1563
Node 3128	Router 1564
Node 3129	Router 1564
Node 3130	Router 1565
Node 3131	Router 1565
Node 3132	Router 1566
Node 3133	Router 1566
Node 3134	Router 1567
Node 3135	Router 1567
Node 3136	Router 1568
Node 3137	Router 1568
Node 3138	Router 1569
Node 3139	Router 1569
Node 3140	Router 1570
Node 3141	Router 1570
Node 3142	Router 1571
Node 3143	Router 1571
Node 3144	Router 1572
Node 3145	Router 1572
Node 3146	Router 1573
Node 3147	Router 1573
Node 3148	Router 1574
Node 3149	Router 1574
Node 3150	Router 1575
Node 3151	Router 1575
Node 3152	Router 1576
Node 3153	Router 1576
Node 3154	Router 1577
Node 3155	Router 1577
Node 3156	Router 1578
Node 3157	Router 1578
Node 3158	Router 1579
Node 3159	Router 1579
Node 3160	Router 1580
Node 3161	Router 1580
Node 3162	Router 1581
Node 3163	Router 1581
Node 3164	Router 1582
Node 3165	Router 1582
Node 3166	Router 1583
Node 3167	Router 1583
Node 3168	Router 1584
Node 3169	Router 1584
Node 3170	Router 1585
Node 3171	Router 1585
Node 3172	Router 1586
Node 3173	Router 1586
Node 3174	Router 1587
Node 3175	Router 1587
Node 3176	Router 1588
Node 3177	Router 1588
Node 3178	Router 1589
Node 3179	Router 1589
Node 3180	Router 1590
Node 3181	Router 1590
Node 3182	Router 1591
Node 3183	Router 1591
Node 3184	Router 1592
Node 3185	Router 1592
Node 3186	Router 1593
Node 3187	Router 1593
Node 3188	Router 1594
Node 3189	Router 1594
Node 3190	Router 1595
Node 3191	Router 1595
Node 3192	Router 1596
Node 3193	Router 1596
Node 3194	Router 1597
Node 3195	Router 1597
Node 3196	Router 1598
Node 3197	Router 1598
Node 3198	Router 1599
Node 3199	Router 1599
Node 3200	Router 1600
Node 3201	Router 1600
Node 3202	Router 1601
Node 3203	Router 1601
Node 3204	Router 1602
Node 3205	Router 1602
Node 3206	Router 1603
Node 3207	Router 1603
Node 3208	Router 1604
Node 3209	Router 1604
Node 3210	Router 1605
Node 3211	Router 1605
Node 3212	Router 1606
Node 3213	Router 1606
Node 3214	Router 1607
Node 3215	Router 1607
Node 3216	Router 1608
Node 3217	Router 1608
Node 3218	Router 1609
Node 3219	Router 1609
Node 3220	Router 1610
Node 3221	Router 1610
Node 3222	Router 1611
Node 3223	Router 1611
Node 3224	Router 1612
Node 3225	Router 1612
Node 3226	Router 1613
Node 3227	Router 1613
Node 3228	Router 1614
Node 3229	Router 1614
Node 3230	Router 1615
Node 3231	Router 1615
Node 3232	Router 1616
Node 3233	Router 1616
Node 3234	Router 1617
Node 3235	Router 1617
Node 3236	Router 1618
Node 3237	Router 1618
Node 3238	Router 1619
Node 3239	Router 1619
Node 3240	Router 1620
Node 3241	Router 1620
Node 3242	Router 1621
Node 3243	Router 1621
Node 3244	Router 1622
Node 3245	Router 1622
Node 3246	Router 1623
Node 3247	Router 1623
Node 3248	Router 1624
Node 3249	Router 1624
Node 3250	Router 1625
Node 3251	Router 1625
Node 3252	Router 1626
Node 3253	Router 1626
Node 3254	Router 1627
Node 3255	Router 1627
Node 3256	Router 1628
Node 3257	Router 1628
Node 3258	Router 1629
Node 3259	Router 1629
Node 3260	Router 1630
Node 3261	Router 1630
Node 3262	Router 1631
Node 3263	Router 1631
Node 3264	Router 1632
Node 3265	Router 1632
Node 3266	Router 1633
Node 3267	Router 1633
Node 3268	Router 1634
Node 3269	Router 1634
Node 3270	Router 1635
Node 3271	Router 1635
Node 3272	Router 1636
Node 3273	Router 1636
Node 3274	Router 1637
Node 3275	Router 1637
Node 3276	Router 1638
Node 3277	Router 1638
Node 3278	Router 1639
Node 3279	Router 1639
Node 3280	Router 1640
Node 3281	Router 1640
Node 3282	Router 1641
Node 3283	Router 1641
Node 3284	Router 1642
Node 3285	Router 1642
Node 3286	Router 1643
Node 3287	Router 1643
Node 3288	Router 1644
Node 3289	Router 1644
Node 3290	Router 1645
Node 3291	Router 1645
Node 3292	Router 1646
Node 3293	Router 1646
Node 3294	Router 1647
Node 3295	Router 1647
Node 3296	Router 1648
Node 3297	Router 1648
Node 3298	Router 1649
Node 3299	Router 1649
Node 3300	Router 1650
Node 3301	Router 1650
Node 3302	Router 1651
Node 3303	Router 1651
Node 3304	Router 1652
Node 3305	Router 1652
Node 3306	Router 1653
Node 3307	Router 1653
Node 3308	Router 1654
Node 3309	Router 1654
Node 3310	Router 1655
Node 3311	Router 1655
Node 3312	Router 1656
Node 3313	Router 1656
Node 3314	Router 1657
Node 3315	Router 1657
Node 3316	Router 1658
Node 3317	Router 1658
Node 3318	Router 1659
Node 3319	Router 1659
Node 3320	Router 1660
Node 3321	Router 1660
Node 3322	Router 1661
Node 3323	Router 1661
Node 3324	Router 1662
Node 3325	Router 1662
Node 3326	Router 1663
Node 3327	Router 1663
Node 3328	Router 1664
Node 3329	Router 1664
Node 3330	Router 1665
Node 3331	Router 1665
Node 3332	Router 1666
Node 3333	Router 1666
Node 3334	Router 1667
Node 3335	Router 1667
Node 3336	Router 1668
Node 3337	Router 1668
Node 3338	Router 1669
Node 3339	Router 1669
Node 3340	Router 1670
Node 3341	Router 1670
Node 3342	Router 1671
Node 3343	Router 1671
Node 3344	Router 1672
Node 3345	Router 1672
Node 3346	Router 1673
Node 3347	Router 1673
Node 3348	Router 1674
Node 3349	Router 1674
Node 3350	Router 1675
Node 3351	Router 1675
Node 3352	Router 1676
Node 3353	Router 1676
Node 3354	Router 1677
Node 3355	Router 1677
Node 3356	Router 1678
Node 3357	Router 1678
Node 3358	Router 1679
Node 3359	Router 1679
Node 3360	Router 1680
Node 3361	Router 1680
Node 3362	Router 1681
Node 3363	Router 1681
Node 3364	Router 1682
Node 3365	Router 1682
Node 3366	Router 1683
Node 3367	Router 1683
Node 3368	Router 1684
Node 3369	Router 1684
Node 3370	Router 1685
Node 3371	Router 1685
Node 3372	Router 1686
Node 3373	Router 1686
Node 3374	Router 1687
Node 3375	Router 1687
Node 3376	Router 1688
Node 3377	Router 1688
Node 3378	Router 1689
Node 3379	Router 1689
Node 3380	Router 1690
Node 3381	Router 1690
Node 3382	Router 1691
Node 3383	Router 1691
Node 3384	Router 1692
Node 3385	Router 1692
Node 3386	Router 1693
Node 3387	Router 1693
Node 3388	Router 1694
Node 3389	Router 1694
Node 3390	Router 1695
Node 3391	Router 1695
Node 3392	Router 1696
Node 3393	Router 1696
Node 3394	Router 1697
Node 3395	Router 1697
Node 3396	Router 1698
Node 3397	Router 1698
Node 3398	Router 1699
Node 3399	Router 1699
Node 3400	Router 1700
Node 3401	Router 1700
Node 3402	Router 1701
Node 3403	Router 1701
Node 3404	Router 1702
Node 3405	Router 1702
Node 3406	Router 1703
Node 3407	Router 1703
Node 3408	Router 1704
Node 3409	Router 1704
Node 3410	Router 1705
Node 3411	Router 1705
Node 3412	Router 1706
Node 3413	Router 1706
Node 3414	Router 1707
Node 3415	Router 1707
Node 3416	Router 1708
Node 3417	Router 1708
Node 3418	Router 1709
Node 3419	Router 1709
Node 3420	Router 1710
Node 3421	Router 1710
Node 3422	Router 1711
Node 3423	Router 1711
Node 3424	Router 1712
Node 3425	Router 1712
Node 3426	Router 1713
Node 3427	Router 1713
Node 3428	Router 1714
Node 3429	Router 1714
Node 3430	Router 1715
Node 3431	Router 1715
Node 3432	Router 1716
Node 3433	Router 1716
Node 3434	Router 1717
Node 3435	Router 1717
Node 3436	Router 1718
Node 3437	Router 1718
Node 3438	Router 1719
Node 3439	Router 1719
Node 3440	Router 1720
Node 3441	Router 1720
Node 3442	Router 1721
Node 3443	Router 1721
Node 3444	Router 1722
Node 3445	Router 1722
Node 3446	Router 1723
Node 3447	Router 1723
Node 3448	Router 1724
Node 3449	Router 1724
Node 3450	Router 1725
Node 3451	Router 1725
Node 3452	Router 1726
Node 3453	Router 1726
Node 3454	Router 1727
Node 3455	Router 1727
Node 3456	Router 1728
Node 3457	Router 1728
Node 3458	Router 1729
Node 3459	Router 1729
Node 3460	Router 1730
Node 3461	Router 1730
Node 3462	Router 1731
Node 3463	Router 1731
Node 3464	Router 1732
Node 3465	Router 1732
Node 3466	Router 1733
Node 3467	Router 1733
Node 3468	Router 1734
Node 3469	Router 1734
Node 3470	Router 1735
Node 3471	Router 1735
Node 3472	Router 1736
Node 3473	Router 1736
Node 3474	Router 1737
Node 3475	Router 1737
Node 3476	Router 1738
Node 3477	Router 1738
Node 3478	Router 1739
Node 3479	Router 1739

****************router to node listing*************
Router 0
	 Node 0 lat 1
	 Node 1 lat 1
Router 1
	 Node 2 lat 1
	 Node 3 lat 1
Router 2
	 Node 4 lat 1
	 Node 5 lat 1
Router 3
	 Node 6 lat 1
	 Node 7 lat 1
Router 4
	 Node 8 lat 1
	 Node 9 lat 1
Router 5
	 Node 10 lat 1
	 Node 11 lat 1
Router 6
	 Node 12 lat 1
	 Node 13 lat 1
Router 7
	 Node 14 lat 1
	 Node 15 lat 1
Router 8
	 Node 16 lat 1
	 Node 17 lat 1
Router 9
	 Node 18 lat 1
	 Node 19 lat 1
Router 10
	 Node 20 lat 1
	 Node 21 lat 1
Router 11
	 Node 22 lat 1
	 Node 23 lat 1
Router 12
	 Node 24 lat 1
	 Node 25 lat 1
Router 13
	 Node 26 lat 1
	 Node 27 lat 1
Router 14
	 Node 28 lat 1
	 Node 29 lat 1
Router 15
	 Node 30 lat 1
	 Node 31 lat 1
Router 16
	 Node 32 lat 1
	 Node 33 lat 1
Router 17
	 Node 34 lat 1
	 Node 35 lat 1
Router 18
	 Node 36 lat 1
	 Node 37 lat 1
Router 19
	 Node 38 lat 1
	 Node 39 lat 1
Router 20
	 Node 40 lat 1
	 Node 41 lat 1
Router 21
	 Node 42 lat 1
	 Node 43 lat 1
Router 22
	 Node 44 lat 1
	 Node 45 lat 1
Router 23
	 Node 46 lat 1
	 Node 47 lat 1
Router 24
	 Node 48 lat 1
	 Node 49 lat 1
Router 25
	 Node 50 lat 1
	 Node 51 lat 1
Router 26
	 Node 52 lat 1
	 Node 53 lat 1
Router 27
	 Node 54 lat 1
	 Node 55 lat 1
Router 28
	 Node 56 lat 1
	 Node 57 lat 1
Router 29
	 Node 58 lat 1
	 Node 59 lat 1
Router 30
	 Node 60 lat 1
	 Node 61 lat 1
Router 31
	 Node 62 lat 1
	 Node 63 lat 1
[...]
	 connected to router 651 using link 17191 at outport 3 lat 1
	 connected to router 1115 using link 17192 at outport 4 lat 1
	 connected to router 1579 using link 17193 at outport 5 lat 1
	 connected to router 1688 using link 17194 at outport 6 lat 1
	 connected to router 1714 using link 17195 at outport 7 lat 1
	 connected to router 1716 using link 17196 at outport 8 lat 1
	 connected to router 1717 using link 17197 at outport 9 lat 1
	 connected to router 1718 using link 17198 at outport 10 lat 1
	 connected to router 1736 using link 17199 at outport 11 lat 1
router 1720
	 connected to router 311 using link 17200 at outport 2 lat 1
	 connected to router 775 using link 17201 at outport 3 lat 1
	 connected to router 1239 using link 17202 at outport 4 lat 1
	 connected to router 1656 using link 17203 at outport 5 lat 1
	 connected to router 1692 using link 17204 at outport 6 lat 1
	 connected to router 1717 using link 17205 at outport 7 lat 1
	 connected to router 1721 using link 17206 at outport 8 lat 1
	 connected to router 1722 using link 17207 at outport 9 lat 1
	 connected to router 1723 using link 17208 at outport 10 lat 1
	 connected to router 1738 using link 17209 at outport 11 lat 1
router 1721
	 connected to router 427 using link 17210 at outport 2 lat 1
	 connected to router 891 using link 17211 at outport 3 lat 1
	 connected to router 1355 using link 17212 at outport 4 lat 1
	 connected to router 1641 using link 17213 at outport 5 lat 1
	 connected to router 1698 using link 17214 at outport 6 lat 1
	 connected to router 1701 using link 17215 at outport 7 lat 1
	 connected to router 1705 using link 17216 at outport 8 lat 1
	 connected to router 1720 using link 17217 at outport 9 lat 1
	 connected to router 1722 using link 17218 at outport 10 lat 1
	 connected to router 1723 using link 17219 at outport 11 lat 1
router 1722
	 connected to router 79 using link 17220 at outport 2 lat 1
	 connected to router 543 using link 17221 at outport 3 lat 1
	 connected to router 1007 using link 17222 at outport 4 lat 1
	 connected to router 1471 using link 17223 at outport 5 lat 1
	 connected to router 1630 using link 17224 at outport 6 lat 1
	 connected to router 1685 using link 17225 at outport 7 lat 1
	 connected to router 1720 using link 17226 at outport 8 lat 1
	 connected to router 1721 using link 17227 at outport 9 lat 1
	 connected to router 1723 using link 17228 at outport 10 lat 1
	 connected to router 1724 using link 17229 at outport 11 lat 1
router 1723
	 connected to router 195 using link 17230 at outport 2 lat 1
	 connected to router 659 using link 17231 at outport 3 lat 1
	 connected to router 1123 using link 17232 at outport 4 lat 1
	 connected to router 1587 using link 17233 at outport 5 lat 1
	 connected to router 1627 using link 17234 at outport 6 lat 1
	 connected to router 1634 using link 17235 at outport 7 lat 1
	 connected to router 1671 using link 17236 at outport 8 lat 1
	 connected to router 1720 using link 17237 at outport 9 lat 1
	 connected to router 1721 using link 17238 at outport 10 lat 1
	 connected to router 1722 using link 17239 at outport 11 lat 1
router 1724
	 connected to router 319 using link 17240 at outport 2 lat 1
	 connected to router 783 using link 17241 at outport 3 lat 1
	 connected to router 1247 using link 17242 at outport 4 lat 1
	 connected to router 1646 using link 17243 at outport 5 lat 1
	 connected to router 1672 using link 17244 at outport 6 lat 1
	 connected to router 1706 using link 17245 at outport 7 lat 1
	 connected to router 1722 using link 17246 at outport 8 lat 1
	 connected to router 1725 using link 17247 at outport 9 lat 1
	 connected to router 1726 using link 17248 at outport 10 lat 1
	 connected to router 1727 using link 17249 at outport 11 lat 1
router 1725
	 connected to router 435 using link 17250 at outport 2 lat 1
	 connected to router 899 using link 17251 at outport 3 lat 1
	 connected to router 1363 using link 17252 at outport 4 lat 1
	 connected to router 1628 using link 17253 at outport 5 lat 1
	 connected to router 1634 using link 17254 at outport 6 lat 1
	 connected to router 1662 using link 17255 at outport 7 lat 1
	 connected to router 1702 using link 17256 at outport 8 lat 1
	 connected to router 1724 using link 17257 at outport 9 lat 1
	 connected to router 1726 using link 17258 at outport 10 lat 1
	 connected to router 1727 using link 17259 at outport 11 lat 1
router 1726
	 connected to router 87 using link 17260 at outport 2 lat 1
	 connected to router 551 using link 17261 at outport 3 lat 1
	 connected to router 1015 using link 17262 at outport 4 lat 1
	 connected to router 1479 using link 17263 at outport 5 lat 1
	 connected to router 1626 using link 17264 at outport 6 lat 1
	 connected to router 1709 using link 17265 at outport 7 lat 1
	 connected to router 1724 using link 17266 at outport 8 lat 1
	 connected to router 1725 using link 17267 at outport 9 lat 1
	 connected to router 1727 using link 17268 at outport 10 lat 1
	 connected to router 1731 using link 17269 at outport 11 lat 1
router 1727
	 connected to router 203 using link 17270 at outport 2 lat 1
	 connected to router 667 using link 17271 at outport 3 lat 1
	 connected to router 1131 using link 17272 at outport 4 lat 1
	 connected to router 1595 using link 17273 at outport 5 lat 1
	 connected to router 1639 using link 17274 at outport 6 lat 1
	 connected to router 1688 using link 17275 at outport 7 lat 1
	 connected to router 1696 using link 17276 at outport 8 lat 1
	 connected to router 1724 using link 17277 at outport 9 lat 1
	 connected to router 1725 using link 17278 at outport 10 lat 1
	 connected to router 1726 using link 17279 at outport 11 lat 1
router 1728
	 connected to router 327 using link 17280 at outport 2 lat 1
	 connected to router 791 using link 17281 at outport 3 lat 1
	 connected to router 1255 using link 17282 at outport 4 lat 1
	 connected to router 1649 using link 17283 at outport 5 lat 1
	 connected to router 1678 using link 17284 at outport 6 lat 1
	 connected to router 1706 using link 17285 at outport 7 lat 1
	 connected to router 1708 using link 17286 at outport 8 lat 1
	 connected to router 1729 using link 17287 at outport 9 lat 1
	 connected to router 1730 using link 17288 at outport 10 lat 1
	 connected to router 1731 using link 17289 at outport 11 lat 1
router 1729
	 connected to router 443 using link 17290 at outport 2 lat 1
	 connected to router 907 using link 17291 at outport 3 lat 1
	 connected to router 1371 using link 17292 at outport 4 lat 1
	 connected to router 1637 using link 17293 at outport 5 lat 1
	 connected to router 1693 using link 17294 at outport 6 lat 1
	 connected to router 1700 using link 17295 at outport 7 lat 1
	 connected to router 1713 using link 17296 at outport 8 lat 1
	 connected to router 1728 using link 17297 at outport 9 lat 1
	 connected to router 1730 using link 17298 at outport 10 lat 1
	 connected to router 1731 using link 17299 at outport 11 lat 1
router 1730
	 connected to router 95 using link 17300 at outport 2 lat 1
	 connected to router 559 using link 17301 at outport 3 lat 1
	 connected to router 1023 using link 17302 at outport 4 lat 1
	 connected to router 1487 using link 17303 at outport 5 lat 1
	 connected to router 1631 using link 17304 at outport 6 lat 1
	 connected to router 1641 using link 17305 at outport 7 lat 1
	 connected to router 1728 using link 17306 at outport 8 lat 1
	 connected to router 1729 using link 17307 at outport 9 lat 1
	 connected to router 1731 using link 17308 at outport 10 lat 1
	 connected to router 1734 using link 17309 at outport 11 lat 1
router 1731
	 connected to router 211 using link 17310 at outport 2 lat 1
	 connected to router 675 using link 17311 at outport 3 lat 1
	 connected to router 1139 using link 17312 at outport 4 lat 1
	 connected to router 1603 using link 17313 at outport 5 lat 1
	 connected to router 1632 using link 17314 at outport 6 lat 1
	 connected to router 1666 using link 17315 at outport 7 lat 1
	 connected to router 1726 using link 17316 at outport 8 lat 1
	 connected to router 1728 using link 17317 at outport 9 lat 1
	 connected to router 1729 using link 17318 at outport 10 lat 1
	 connected to router 1730 using link 17319 at outport 11 lat 1
router 1732
	 connected to router 335 using link 17320 at outport 2 lat 1
	 connected to router 799 using link 17321 at outport 3 lat 1
	 connected to router 1263 using link 17322 at outport 4 lat 1
	 connected to router 1632 using link 17323 at outport 5 lat 1
	 connected to router 1640 using link 17324 at outport 6 lat 1
	 connected to router 1696 using link 17325 at outport 7 lat 1
	 connected to router 1733 using link 17326 at outport 8 lat 1
	 connected to router 1734 using link 17327 at outport 9 lat 1
	 connected to router 1735 using link 17328 at outport 10 lat 1
	 connected to router 1736 using link 17329 at outport 11 lat 1
router 1733
	 connected to router 451 using link 17330 at outport 2 lat 1
	 connected to router 915 using link 17331 at outport 3 lat 1
	 connected to router 1379 using link 17332 at outport 4 lat 1
	 connected to router 1639 using link 17333 at outport 5 lat 1
	 connected to router 1647 using link 17334 at outport 6 lat 1
	 connected to router 1653 using link 17335 at outport 7 lat 1
	 connected to router 1713 using link 17336 at outport 8 lat 1
	 connected to router 1732 using link 17337 at outport 9 lat 1
	 connected to router 1734 using link 17338 at outport 10 lat 1
	 connected to router 1735 using link 17339 at outport 11 lat 1
router 1734
	 connected to router 103 using link 17340 at outport 2 lat 1
	 connected to router 567 using link 17341 at outport 3 lat 1
	 connected to router 1031 using link 17342 at outport 4 lat 1
	 connected to router 1495 using link 17343 at outport 5 lat 1
	 connected to router 1683 using link 17344 at outport 6 lat 1
	 connected to router 1711 using link 17345 at outport 7 lat 1
	 connected to router 1730 using link 17346 at outport 8 lat 1
	 connected to router 1732 using link 17347 at outport 9 lat 1
	 connected to router 1733 using link 17348 at outport 10 lat 1
	 connected to router 1735 using link 17349 at outport 11 lat 1
router 1735
	 connected to router 219 using link 17350 at outport 2 lat 1
	 connected to router 683 using link 17351 at outport 3 lat 1
	 connected to router 1147 using link 17352 at outport 4 lat 1
	 connected to router 1611 using link 17353 at outport 5 lat 1
	 connected to router 1668 using link 17354 at outport 6 lat 1
	 connected to router 1705 using link 17355 at outport 7 lat 1
	 connected to router 1718 using link 17356 at outport 8 lat 1
	 connected to router 1732 using link 17357 at outport 9 lat 1
	 connected to router 1733 using link 17358 at outport 10 lat 1
	 connected to router 1734 using link 17359 at outport 11 lat 1
router 1736
	 connected to router 343 using link 17360 at outport 2 lat 1
	 connected to router 807 using link 17361 at outport 3 lat 1
	 connected to router 1271 using link 17362 at outport 4 lat 1
	 connected to router 1644 using link 17363 at outport 5 lat 1
	 connected to router 1709 using link 17364 at outport 6 lat 1
	 connected to router 1719 using link 17365 at outport 7 lat 1
	 connected to router 1732 using link 17366 at outport 8 lat 1
	 connected to router 1737 using link 17367 at outport 9 lat 1
	 connected to router 1738 using link 17368 at outport 10 lat 1
	 connected to router 1739 using link 17369 at outport 11 lat 1
router 1737
	 connected to router 459 using link 17370 at outport 2 lat 1
	 connected to router 923 using link 17371 at outport 3 lat 1
	 connected to router 1387 using link 17372 at outport 4 lat 1
	 connected to router 1625 using link 17373 at outport 5 lat 1
	 connected to router 1643 using link 17374 at outport 6 lat 1
	 connected to router 1649 using link 17375 at outport 7 lat 1
	 connected to router 1687 using link 17376 at outport 8 lat 1
	 connected to router 1736 using link 17377 at outport 9 lat 1
	 connected to router 1738 using link 17378 at outport 10 lat 1
	 connected to router 1739 using link 17379 at outport 11 lat 1
router 1738
	 connected to router 111 using link 17380 at outport 2 lat 1
	 connected to router 575 using link 17381 at outport 3 lat 1
	 connected to router 1039 using link 17382 at outport 4 lat 1
	 connected to router 1503 using link 17383 at outport 5 lat 1
	 connected to router 1700 using link 17384 at outport 6 lat 1
	 connected to router 1715 using link 17385 at outport 7 lat 1
	 connected to router 1720 using link 17386 at outport 8 lat 1
	 connected to router 1736 using link 17387 at outport 9 lat 1
	 connected to router 1737 using link 17388 at outport 10 lat 1
	 connected to router 1739 using link 17389 at outport 11 lat 1
router 1739
	 connected to router 227 using link 17390 at outport 2 lat 1
	 connected to router 691 using link 17391 at outport 3 lat 1
	 connected to router 1155 using link 17392 at outport 4 lat 1
	 connected to router 1619 using link 17393 at outport 5 lat 1
	 connected to router 1636 using link 17394 at outport 6 lat 1
	 connected to router 1656 using link 17395 at outport 7 lat 1
	 connected to router 1673 using link 17396 at outport 8 lat 1
	 connected to router 1736 using link 17397 at outport 9 lat 1
	 connected to router 1737 using link 17398 at outport 10 lat 1
	 connected to router 1738 using link 17399 at outport 11 lat 1
========================== Routing table  =====================
Class 0:
Packet latency average = 22.0493
	minimum = 6
	maximum = 41
Network latency average = 22.0493
	minimum = 6
	maximum = 41
Slowest packet = 3233661
Flit latency average = 22.0493
	minimum = 6
	maximum = 41
Slowest flit = 3233661
Fragmentation average = 0
	minimum = 0
	maximum = 0
Injected packet rate average = 0.200064
	minimum = 0.1826 (at node 2495)
	maximum = 0.2139 (at node 779)
Accepted packet rate average = 0.199623
	minimum = 0.1823 (at node 306)
	maximum = 0.214 (at node 837)
Injected flit rate average = 0.200064
	minimum = 0.1826 (at node 2495)
	maximum = 0.2139 (at node 779)
Accepted flit rate average= 0.199623
	minimum = 0.1823 (at node 306)
	maximum = 0.214 (at node 837)
Injected packet length average = 1
Accepted packet length average = 1
Total in-flight flits = 15349 (0 measured)
latency change    = 1
throughput change = 1
Class 0:
Packet latency average = 22.0499
	minimum = 6
	maximum = 41
Network latency average = 22.0499
	minimum = 6
	maximum = 41
Slowest packet = 3233661
Flit latency average = 22.0499
	minimum = 6
	maximum = 41
Slowest flit = 3233661
Fragmentation average = 0
	minimum = 0
	maximum = 0
Injected packet rate average = 0.199983
	minimum = 0.19015 (at node 1359)
	maximum = 0.20925 (at node 2508)
Accepted packet rate average = 0.199759
	minimum = 0.1888 (at node 306)
	maximum = 0.21235 (at node 1461)
Injected flit rate average = 0.199983
	minimum = 0.19015 (at node 1359)
	maximum = 0.20925 (at node 2508)
Accepted flit rate average= 0.199759
	minimum = 0.1888 (at node 306)
	maximum = 0.21235 (at node 1461)
Injected packet length average = 1
Accepted packet length average = 1
Total in-flight flits = 15532 (0 measured)
latency change    = 2.89195e-05
throughput change = 0.000685019
Class 0:
Packet latency average = 22.0482
	minimum = 6
	maximum = 41
Network latency average = 22.0482
	minimum = 6
	maximum = 41
Slowest packet = 16995496
Flit latency average = 22.0482
	minimum = 6
	maximum = 41
Slowest flit = 16995496
Fragmentation average = 0
	minimum = 0
	maximum = 0
Injected packet rate average = 0.200067
	minimum = 0.1837 (at node 506)
	maximum = 0.2118 (at node 763)
Accepted packet rate average = 0.200072
	minimum = 0.1835 (at node 2238)
	maximum = 0.2146 (at node 1881)
Injected flit rate average = 0.200067
	minimum = 0.1837 (at node 506)
	maximum = 0.2118 (at node 763)
Accepted flit rate average= 0.200072
	minimum = 0.1835 (at node 2238)
	maximum = 0.2146 (at node 1881)
Injected packet length average = 1
Accepted packet length average = 1
Total in-flight flits = 15358 (0 measured)
latency change    = 7.8893e-05
throughput change = 0.00156079
Warmed up ...Time used is 30000 cycles
Class 0:
Packet latency average = 22.0467
	minimum = 6
	maximum = 41
Network latency average = 22.0467
	minimum = 6
	maximum = 41
Slowest packet = 26639078
Flit latency average = 22.0478
	minimum = 6
	maximum = 41
Slowest flit = 26639078
Fragmentation average = 0
	minimum = 0
	maximum = 0
Injected packet rate average = 0.199962
	minimum = 0.1845 (at node 1193)
	maximum = 0.2128 (at node 894)
Accepted packet rate average = 0.199959
	minimum = 0.1845 (at node 126)
	maximum = 0.2162 (at node 412)
Injected flit rate average = 0.199962
	minimum = 0.1845 (at node 1193)
	maximum = 0.2128 (at node 894)
Accepted flit rate average= 0.199959
	minimum = 0.1845 (at node 126)
	maximum = 0.2162 (at node 412)
Injected packet length average = 1
Accepted packet length average = 1
Total in-flight flits = 15453 (15453 measured)
latency change    = 6.63201e-05
throughput change = 0.000561464
Class 0:
Packet latency average = 22.0479
	minimum = 6
	maximum = 41
Network latency average = 22.0479
	minimum = 6
	maximum = 41
Slowest packet = 26639078
Flit latency average = 22.0484
	minimum = 6
	maximum = 41
Slowest flit = 26639078
Fragmentation average = 0
	minimum = 0
	maximum = 0
Injected packet rate average = 0.199971
	minimum = 0.1884 (at node 1382)
	maximum = 0.2092 (at node 2478)
Accepted packet rate average = 0.199971
	minimum = 0.188 (at node 2915)
	maximum = 0.2099 (at node 3054)
Injected flit rate average = 0.199971
	minimum = 0.1884 (at node 1382)
	maximum = 0.2092 (at node 2478)
Accepted flit rate average= 0.199971
	minimum = 0.188 (at node 2915)
	maximum = 0.2099 (at node 3054)
Injected packet length average = 1
Accepted packet length average = 1
Total in-flight flits = 15370 (15370 measured)
latency change    = 5.36034e-05
throughput change = 5.83417e-05
Class 0:
Packet latency average = 22.0483
	minimum = 6
	maximum = 41
Network latency average = 22.0483
	minimum = 6
	maximum = 41
Slowest packet = 26639078
Flit latency average = 22.0487
	minimum = 6
	maximum = 41
Slowest flit = 26639078
Fragmentation average = 0
	minimum = 0
	maximum = 0
Injected packet rate average = 0.19999
	minimum = 0.191967 (at node 1382)
	maximum = 0.208133 (at node 643)
Accepted packet rate average = 0.199989
	minimum = 0.189333 (at node 2068)
	maximum = 0.209333 (at node 63)
Injected flit rate average = 0.19999
	minimum = 0.191967 (at node 1382)
	maximum = 0.208133 (at node 643)
Accepted flit rate average= 0.199989
	minimum = 0.189333 (at node 2068)
	maximum = 0.209333 (at node 63)
Injected packet length average = 1
Accepted packet length average = 1
Total in-flight flits = 15524 (15524 measured)
latency change    = 1.99152e-05
throughput change = 8.81754e-05
Draining all recorded packets ...
Draining remaining packets ...
Time taken is 60066 cycles
====== Overall Traffic Statistics ======
====== Traffic class 0 ======
Packet latency average = 22.0487 (1 samples)
	minimum = 6 (1 samples)
	maximum = 41 (1 samples)
Network latency average = 22.0487 (1 samples)
	minimum = 6 (1 samples)
	maximum = 41 (1 samples)
Flit latency average = 22.049 (1 samples)
	minimum = 6 (1 samples)
	maximum = 41 (1 samples)
Fragmentation average = 0 (1 samples)
	minimum = 0 (1 samples)
	maximum = 0 (1 samples)
Injected packet rate average = 0.19999 (1 samples)
	minimum = 0.191967 (1 samples)
	maximum = 0.208133 (1 samples)
Accepted packet rate average = 0.199989 (1 samples)
	minimum = 0.189333 (1 samples)
	maximum = 0.209333 (1 samples)
Injected flit rate average = 0.19999 (1 samples)
	minimum = 0.191967 (1 samples)
	maximum = 0.208133 (1 samples)
Accepted flit rate average = 0.199989 (1 samples)
	minimum = 0.189333 (1 samples)
	maximum = 0.209333 (1 samples)
Injected packet size average = 1 (1 samples)
Accepted packet size average = 1 (1 samples)
Hops average = 4.7133 (1 samples)
Total run time 2072.8
