BEGIN Configuration File: anynet_config_load08
// $Id: singleconfig 1535 2009-09-16 16:21:01Z dub $

// Copyright (c) 2007-2009, Trustees of The Leland Stanford Junior University
// All rights reserved.
// 
// Redistribution and use in source and binary forms, with or without 
// modification, are permitted provided that the following conditions are met:
// 
// Redistributions of source code must retain the above copyright notice, this 
// list of conditions and the following disclaimer.
// Redistributions in binary form must reproduce the above copyright notice, 
// this list of conditions and the following disclaimer in the documentation 
// and/or other materials provided with the distribution.
// Neither the name of the Stanford University nor the names of its contributors
// may be used to endorse or promote products derived from this software without
// specific prior written permission.
// 
// THIS SOFTWARE IS PROVIDED BY THE COPYRIGHT HOLDERS AND CONTRIBUTORS "AS IS" 
// AND ANY EXPRESS OR IMPLIED WARRANTIES, INCLUDING, BUT NOT LIMITED TO, THE 
// IMPLIED WARRANTIES OF MERCHANTABILITY AND FITNESS FOR A PARTICULAR PURPOSE 
// ARE DISCLAIMED. IN NO EVENT SHALL THE COPYRIGHT OWNER OR CONTRIBUTORS BE 
// LIABLE FOR ANY DIRECT, INDIRECT, INCIDENTAL, SPECIAL, EXEMPLARY, OR 
// CONSEQUENTIAL DAMAGES (INCLUDING, BUT NOT LIMITED TO, PROCUREMENT OF 
// SUBSTITUTE GOODS OR SERVICES; LOSS OF USE, DATA, OR PROFITS; OR BUSINESS 
// INTERRUPTION) HOWEVER CAUSED AND ON ANY THEORY OF LIABILITY, WHETHER IN 
// CONTRACT, STRICT LIABILITY, OR TORT (INCLUDING NEGLIGENCE OR OTHERWISE) 
// ARISING IN ANY WAY OUT OF THE USE OF THIS SOFTWARE, EVEN IF ADVISED OF THE 
// POSSIBILITY OF SUCH DAMAGE.

//A single cross 10X10 cross bar under injection mode

topology = anynet;
network_file = anynet_file;

//single flit   packets
packet_size = 1;

//7 cycles delay in each input-queued router
credit_delay   = 2;
routing_delay  = 2;
vc_alloc_delay = 1;
sw_alloc_delay = 1;
st_final_delay = 1;

// Input and output a crossbar is 1, and the speed of internal routers speedup of is 2 times of the channel transmission rate.
input_speedup     = 1;
output_speedup    = 1;
internal_speedup  = 2.0;

//The buffer of each port has 256 policy is that each VC has 5 flits in privacy and  the others are shared by all VCs.
vc_buf_size = 256;
private_buf_size = 5;
wait_for_tail_credit = 0;

//
// Router architecture
//
vc_allocator = separable_input_first;
sw_allocator = separable_input_first;
alloc_iters  = 1;

warmup_periods = 3;
sim_count          = 1;

sample_period  = 10000;

routing_function = min;
num_vcs     = 2;

priority = none;
traffic       = uniform;

injection_rate = 0.8;

injection_rate_uses_flits=1;


k  = 4;
n  = 1;

watch_out=-;;END Configuration File: anynet_config_load08
------------config-------------------
alloc_iters 1
batch_count 1
batch_size 1000
buf_size -1
c 1
channel_sweep 0
channel_width 128
class_priority 0
classes 1
credit_delay 2
deadlock_warn_timeout 256
fail_seed 0
feedback_aging_scale 1
feedback_offset 0
hold_switch_for_packet 0
in_ports 5
include_queuing 1
injection_rate_uses_flits 1
input_speedup 1
k 4
link_failures 0
max_held_slots -1
max_outstanding_requests 0
max_samples 10
measure_stats 1
n 1
noq 0
num_vcs 2
out_ports 5
output_buffer_size -1
output_delay 0
output_speedup 1
packet_size 1
packet_size_rate 1
pair_stats 0
perm_seed 0
print_activity 0
print_csv_results 0
private_buf_end_vc -1
private_buf_size 5
private_buf_start_vc -1
private_bufs -1
read_reply_begin_vc 8
read_reply_end_vc 13
read_reply_size 1
read_reply_subnet 0
read_request_begin_vc 0
read_request_end_vc 5
read_request_size 1
read_request_subnet 0
routing_delay 2
sample_period 10000
seed 0
sim_count 1
sim_power 0
spec_check_cred 1
spec_check_elig 1
spec_mask_by_reqs 0
speculative 0
st_final_delay 1
st_prepare_delay 0
subnets 1
sw_alloc_delay 1
use_noc_latency 1
use_read_write 0
vc_alloc_delay 1
vc_buf_size 256
vc_busy_when_full 0
vc_prioritize_empty 0
vc_priority_donation 0
vc_shuffle_requests 0
vct 0
viewer_trace 0
wait_for_tail_credit 0
warmup_periods 3
write_reply_begin_vc 10
write_reply_end_vc 15
write_reply_size 1
write_reply_subnet 0
write_request_begin_vc 2
write_request_end_vc 7
write_request_size 1
write_request_subnet 0
x 8
xr 1
y 8
yr 1
acc_stopping_thres 
acc_warmup_thres 
arb_type round_robin
buffer_policy private
channel_file 
class_priority 
fail_seed 
injection_process bernoulli
injection_rate 
latency_thres 
measure_stats 
network_file anynet_file
packet_size 
packet_size_rate 
perm_seed 
power_output_file pwr_tmp
priority none
private_buf_end_vc 
private_buf_size 
private_buf_start_vc 
read_reply_size 
read_request_size 
router iq
routing_function min
seed 
sent_packets_out 
sim_type latency
spec_sw_allocator prio
stats_out 
stopping_thres 
sw_allocator separable_input_first
tech_file 
topology anynet
traffic uniform
use_read_write 
vc_allocator separable_input_first
warmup_thres 
watch_file 
watch_flits 
watch_out -
watch_packets 
watch_transactions 
write_fraction 
write_reply_size 
write_request_size 
acc_stopping_thres 0.05
acc_warmup_thres 0.05
burst_alpha 0.5
burst_beta 0.5
burst_r1 -1
injection_rate 0.8
internal_speedup 2
latency_thres 500
stopping_thres 0.05
warmup_thres 0.05
write_fraction 0.5
========================Network File Parsed=================
******************node listing**********************
Node 0	Router 0
Node 1	Router 0
Node 2	Router 0
Node 3	Router 0
Node 4	Router 0
Node 5	Router 0
Node 6	Router 0
Node 7	Router 0
Node 8	Router 0
Node 9	Router 0
Node 10	Router 1
Node 11	Router 1
Node 12	Router 1
Node 13	Router 1
Node 14	Router 1
Node 15	Router 1
Node 16	Router 1
Node 17	Router 1
Node 18	Router 1
Node 19	Router 1
Node 20	Router 2
Node 21	Router 2
Node 22	Router 2
Node 23	Router 2
Node 24	Router 2
Node 25	Router 2
Node 26	Router 2
Node 27	Router 2
Node 28	Router 2
Node 29	Router 2
Node 30	Router 3
Node 31	Router 3
Node 32	Router 3
Node 33	Router 3
Node 34	Router 3
Node 35	Router 3
Node 36	Router 3
Node 37	Router 3
Node 38	Router 3
Node 39	Router 3
Node 40	Router 4
Node 41	Router 4
Node 42	Router 4
Node 43	Router 4
Node 44	Router 4
Node 45	Router 4
Node 46	Router 4
Node 47	Router 4
Node 48	Router 4
Node 49	Router 4
Node 50	Router 5
Node 51	Router 5
Node 52	Router 5
Node 53	Router 5
Node 54	Router 5
Node 55	Router 5
Node 56	Router 5
Node 57	Router 5
Node 58	Router 5
Node 59	Router 5
Node 60	Router 6
Node 61	Router 6
Node 62	Router 6
Node 63	Router 6
Node 64	Router 6
Node 65	Router 6
Node 66	Router 6
Node 67	Router 6
Node 68	Router 6
Node 69	Router 6
Node 70	Router 7
Node 71	Router 7
Node 72	Router 7
Node 73	Router 7
Node 74	Router 7
Node 75	Router 7
Node 76	Router 7
Node 77	Router 7
Node 78	Router 7
Node 79	Router 7
Node 80	Router 8
Node 81	Router 8
Node 82	Router 8
Node 83	Router 8
Node 84	Router 8
Node 85	Router 8
Node 86	Router 8
Node 87	Router 8
Node 88	Router 8
Node 89	Router 8
Node 90	Router 9
Node 91	Router 9
Node 92	Router 9
Node 93	Router 9
Node 94	Router 9
Node 95	Router 9
Node 96	Router 9
Node 97	Router 9
Node 98	Router 9
Node 99	Router 9
Node 100	Router 10
Node 101	Router 10
Node 102	Router 10
Node 103	Router 10
Node 104	Router 10
Node 105	Router 10
Node 106	Router 10
Node 107	Router 10
Node 108	Router 10
Node 109	Router 10
Node 110	Router 11
Node 111	Router 11
Node 112	Router 11
Node 113	Router 11
Node 114	Router 11
Node 115	Router 11
Node 116	Router 11
Node 117	Router 11
Node 118	Router 11
Node 119	Router 11
Node 120	Router 12
Node 121	Router 12
Node 122	Router 12
Node 123	Router 12
Node 124	Router 12
Node 125	Router 12
Node 126	Router 12
Node 127	Router 12
Node 128	Router 12
Node 129	Router 12
Node 130	Router 13
Node 131	Router 13
Node 132	Router 13
Node 133	Router 13
Node 134	Router 13
Node 135	Router 13
Node 136	Router 13
Node 137	Router 13
Node 138	Router 13
Node 139	Router 13
Node 140	Router 14
Node 141	Router 14
Node 142	Router 14
Node 143	Router 14
Node 144	Router 14
Node 145	Router 14
Node 146	Router 14
Node 147	Router 14
Node 148	Router 14
Node 149	Router 14
Node 150	Router 15
Node 151	Router 15
Node 152	Router 15
Node 153	Router 15
Node 154	Router 15
Node 155	Router 15
Node 156	Router 15
Node 157	Router 15
Node 158	Router 15
Node 159	Router 15
Node 160	Router 16
Node 161	Router 16
Node 162	Router 16
Node 163	Router 16
Node 164	Router 16
Node 165	Router 16
Node 166	Router 16
Node 167	Router 16
Node 168	Router 16
Node 169	Router 16
Node 170	Router 17
Node 171	Router 17
Node 172	Router 17
Node 173	Router 17
Node 174	Router 17
Node 175	Router 17
Node 176	Router 17
Node 177	Router 17
Node 178	Router 17
Node 179	Router 17
Node 180	Router 18
Node 181	Router 18
Node 182	Router 18
Node 183	Router 18
Node 184	Router 18
Node 185	Router 18
Node 186	Router 18
Node 187	Router 18
Node 188	Router 18
Node 189	Router 18
Node 190	Router 19
Node 191	Router 19
Node 192	Router 19
Node 193	Router 19
Node 194	Router 19
Node 195	Router 19
Node 196	Router 19
Node 197	Router 19
Node 198	Router 19
Node 199	Router 19
Node 200	Router 20
Node 201	Router 20
Node 202	Router 20
Node 203	Router 20
Node 204	Router 20
Node 205	Router 20
Node 206	Router 20
Node 207	Router 20
Node 208	Router 20
Node 209	Router 20
Node 210	Router 21
Node 211	Router 21
Node 212	Router 21
Node 213	Router 21
Node 214	Router 21
Node 215	Router 21
Node 216	Router 21
Node 217	Router 21
Node 218	Router 21
Node 219	Router 21
Node 220	Router 22
Node 221	Router 22
Node 222	Router 22
Node 223	Router 22
Node 224	Router 22
Node 225	Router 22
Node 226	Router 22
Node 227	Router 22
Node 228	Router 22
Node 229	Router 22
Node 230	Router 23
Node 231	Router 23
Node 232	Router 23
Node 233	Router 23
Node 234	Router 23
Node 235	Router 23
Node 236	Router 23
Node 237	Router 23
Node 238	Router 23
Node 239	Router 23
Node 240	Router 24
Node 241	Router 24
Node 242	Router 24
Node 243	Router 24
Node 244	Router 24
Node 245	Router 24
Node 246	Router 24
Node 247	Router 24
Node 248	Router 24
Node 249	Router 24
Node 250	Router 25
Node 251	Router 25
Node 252	Router 25
Node 253	Router 25
Node 254	Router 25
Node 255	Router 25
Node 256	Router 25
Node 257	Router 25
Node 258	Router 25
Node 259	Router 25
Node 260	Router 26
Node 261	Router 26
Node 262	Router 26
Node 263	Router 26
Node 264	Router 26
Node 265	Router 26
Node 266	Router 26
Node 267	Router 26
Node 268	Router 26
Node 269	Router 26
Node 270	Router 27
Node 271	Router 27
Node 272	Router 27
Node 273	Router 27
Node 274	Router 27
Node 275	Router 27
Node 276	Router 27
Node 277	Router 27
Node 278	Router 27
Node 279	Router 27
Node 280	Router 28
Node 281	Router 28
Node 282	Router 28
Node 283	Router 28
Node 284	Router 28
Node 285	Router 28
Node 286	Router 28
Node 287	Router 28
Node 288	Router 28
Node 289	Router 28
Node 290	Router 29
Node 291	Router 29
Node 292	Router 29
Node 293	Router 29
Node 294	Router 29
Node 295	Router 29
Node 296	Router 29
Node 297	Router 29
Node 298	Router 29
Node 299	Router 29
Node 300	Router 30
Node 301	Router 30
Node 302	Router 30
Node 303	Router 30
Node 304	Router 30
Node 305	Router 30
Node 306	Router 30
Node 307	Router 30
Node 308	Router 30
Node 309	Router 30
Node 310	Router 31
Node 311	Router 31
Node 312	Router 31
Node 313	Router 31
Node 314	Router 31
Node 315	Router 31
Node 316	Router 31
Node 317	Router 31
Node 318	Router 31
Node 319	Router 31
Node 320	Router 32
Node 321	Router 32
Node 322	Router 32
Node 323	Router 32
Node 324	Router 32
Node 325	Router 32
Node 326	Router 32
Node 327	Router 32
Node 328	Router 32
Node 329	Router 32
Node 330	Router 33
Node 331	Router 33
Node 332	Router 33
Node 333	Router 33
Node 334	Router 33
Node 335	Router 33
Node 336	Router 33
Node 337	Router 33
Node 338	Router 33
Node 339	Router 33
Node 340	Router 34
Node 341	Router 34
Node 342	Router 34
Node 343	Router 34
Node 344	Router 34
Node 345	Router 34
Node 346	Router 34
Node 347	Router 34
Node 348	Router 34
Node 349	Router 34
Node 350	Router 35
Node 351	Router 35
Node 352	Router 35
Node 353	Router 35
Node 354	Router 35
Node 355	Router 35
Node 356	Router 35
Node 357	Router 35
Node 358	Router 35
Node 359	Router 35
Node 360	Router 36
Node 361	Router 36
Node 362	Router 36
Node 363	Router 36
Node 364	Router 36
Node 365	Router 36
Node 366	Router 36
Node 367	Router 36
Node 368	Router 36
Node 369	Router 36
Node 370	Router 37
Node 371	Router 37
Node 372	Router 37
Node 373	Router 37
Node 374	Router 37
Node 375	Router 37
Node 376	Router 37
Node 377	Router 37
Node 378	Router 37
Node 379	Router 37
Node 380	Router 38
Node 381	Router 38
Node 382	Router 38
Node 383	Router 38
Node 384	Router 38
Node 385	Router 38
Node 386	Router 38
Node 387	Router 38
Node 388	Router 38
Node 389	Router 38
Node 390	Router 39
Node 391	Router 39
Node 392	Router 39
Node 393	Router 39
Node 394	Router 39
Node 395	Router 39
Node 396	Router 39
Node 397	Router 39
Node 398	Router 39
Node 399	Router 39
Node 400	Router 40
Node 401	Router 40
Node 402	Router 40
Node 403	Router 40
Node 404	Router 40
Node 405	Router 40
Node 406	Router 40
Node 407	Router 40
Node 408	Router 40
Node 409	Router 40
Node 410	Router 41
Node 411	Router 41
Node 412	Router 41
Node 413	Router 41
Node 414	Router 41
Node 415	Router 41
Node 416	Router 41
Node 417	Router 41
Node 418	Router 41
Node 419	Router 41
Node 420	Router 42
Node 421	Router 42
Node 422	Router 42
Node 423	Router 42
Node 424	Router 42
Node 425	Router 42
Node 426	Router 42
Node 427	Router 42
Node 428	Router 42
Node 429	Router 42
Node 430	Router 43
Node 431	Router 43
Node 432	Router 43
Node 433	Router 43
Node 434	Router 43
Node 435	Router 43
Node 436	Router 43
Node 437	Router 43
Node 438	Router 43
Node 439	Router 43
Node 440	Router 44
Node 441	Router 44
Node 442	Router 44
Node 443	Router 44
Node 444	Router 44
Node 445	Router 44
Node 446	Router 44
Node 447	Router 44
Node 448	Router 44
Node 449	Router 44
Node 450	Router 45
Node 451	Router 45
Node 452	Router 45
Node 453	Router 45
Node 454	Router 45
Node 455	Router 45
Node 456	Router 45
Node 457	Router 45
Node 458	Router 45
Node 459	Router 45
Node 460	Router 46
Node 461	Router 46
Node 462	Router 46
Node 463	Router 46
Node 464	Router 46
Node 465	Router 46
Node 466	Router 46
Node 467	Router 46
Node 468	Router 46
Node 469	Router 46
Node 470	Router 47
Node 471	Router 47
Node 472	Router 47
Node 473	Router 47
Node 474	Router 47
Node 475	Router 47
Node 476	Router 47
Node 477	Router 47
Node 478	Router 47
Node 479	Router 47
Node 480	Router 48
Node 481	Router 48
Node 482	Router 48
Node 483	Router 48
Node 484	Router 48
Node 485	Router 48
Node 486	Router 48
Node 487	Router 48
Node 488	Router 48
Node 489	Router 48
Node 490	Router 49
Node 491	Router 49
Node 492	Router 49
Node 493	Router 49
Node 494	Router 49
Node 495	Router 49
Node 496	Router 49
Node 497	Router 49
Node 498	Router 49
Node 499	Router 49
Node 500	Router 50
Node 501	Router 50
Node 502	Router 50
Node 503	Router 50
Node 504	Router 50
Node 505	Router 50
Node 506	Router 50
Node 507	Router 50
Node 508	Router 50
Node 509	Router 50
Node 510	Router 51
Node 511	Router 51
Node 512	Router 51
Node 513	Router 51
Node 514	Router 51
Node 515	Router 51
Node 516	Router 51
Node 517	Router 51
Node 518	Router 51
Node 519	Router 51
Node 520	Router 52
Node 521	Router 52
Node 522	Router 52
Node 523	Router 52
Node 524	Router 52
Node 525	Router 52
Node 526	Router 52
Node 527	Router 52
Node 528	Router 52
Node 529	Router 52
Node 530	Router 53
Node 531	Router 53
Node 532	Router 53
Node 533	Router 53
Node 534	Router 53
Node 535	Router 53
Node 536	Router 53
Node 537	Router 53
Node 538	Router 53
Node 539	Router 53
Node 540	Router 54
Node 541	Router 54
Node 542	Router 54
Node 543	Router 54
Node 544	Router 54
Node 545	Router 54
Node 546	Router 54
Node 547	Router 54
Node 548	Router 54
Node 549	Router 54
Node 550	Router 55
Node 551	Router 55
Node 552	Router 55
Node 553	Router 55
Node 554	Router 55
Node 555	Router 55
Node 556	Router 55
Node 557	Router 55
Node 558	Router 55
Node 559	Router 55
Node 560	Router 56
Node 561	Router 56
Node 562	Router 56
Node 563	Router 56
Node 564	Router 56
Node 565	Router 56
Node 566	Router 56
Node 567	Router 56
Node 568	Router 56
Node 569	Router 56
Node 570	Router 57
Node 571	Router 57
Node 572	Router 57
Node 573	Router 57
Node 574	Router 57
Node 575	Router 57
Node 576	Router 57
Node 577	Router 57
Node 578	Router 57
Node 579	Router 57
Node 580	Router 58
Node 581	Router 58
Node 582	Router 58
Node 583	Router 58
Node 584	Router 58
Node 585	Router 58
Node 586	Router 58
Node 587	Router 58
Node 588	Router 58
Node 589	Router 58
Node 590	Router 59
Node 591	Router 59
Node 592	Router 59
Node 593	Router 59
Node 594	Router 59
Node 595	Router 59
Node 596	Router 59
Node 597	Router 59
Node 598	Router 59
Node 599	Router 59
Node 600	Router 60
Node 601	Router 60
Node 602	Router 60
Node 603	Router 60
Node 604	Router 60
Node 605	Router 60
Node 606	Router 60
Node 607	Router 60
Node 608	Router 60
Node 609	Router 60
Node 610	Router 61
Node 611	Router 61
Node 612	Router 61
Node 613	Router 61
Node 614	Router 61
Node 615	Router 61
Node 616	Router 61
Node 617	Router 61
Node 618	Router 61
Node 619	Router 61
Node 620	Router 62
Node 621	Router 62
Node 622	Router 62
Node 623	Router 62
Node 624	Router 62
Node 625	Router 62
Node 626	Router 62
Node 627	Router 62
Node 628	Router 62
Node 629	Router 62
Node 630	Router 63
Node 631	Router 63
Node 632	Router 63
Node 633	Router 63
Node 634	Router 63
Node 635	Router 63
Node 636	Router 63
Node 637	Router 63
Node 638	Router 63
Node 639	Router 63
Node 640	Router 64
Node 641	Router 64
Node 642	Router 64
Node 643	Router 64
Node 644	Router 64
Node 645	Router 64
Node 646	Router 64
Node 647	Router 64
Node 648	Router 64
Node 649	Router 64
Node 650	Router 65
Node 651	Router 65
Node 652	Router 65
Node 653	Router 65
Node 654	Router 65
Node 655	Router 65
Node 656	Router 65
Node 657	Router 65
Node 658	Router 65
Node 659	Router 65
Node 660	Router 66
Node 661	Router 66
Node 662	Router 66
Node 663	Router 66
Node 664	Router 66
Node 665	Router 66
Node 666	Router 66
Node 667	Router 66
Node 668	Router 66
Node 669	Router 66
Node 670	Router 67
Node 671	Router 67
Node 672	Router 67
Node 673	Router 67
Node 674	Router 67
Node 675	Router 67
Node 676	Router 67
Node 677	Router 67
Node 678	Router 67
Node 679	Router 67
Node 680	Router 68
Node 681	Router 68
Node 682	Router 68
Node 683	Router 68
Node 684	Router 68
Node 685	Router 68
Node 686	Router 68
Node 687	Router 68
Node 688	Router 68
Node 689	Router 68
Node 690	Router 69
Node 691	Router 69
Node 692	Router 69
Node 693	Router 69
Node 694	Router 69
Node 695	Router 69
Node 696	Router 69
Node 697	Router 69
Node 698	Router 69
Node 699	Router 69
Node 700	Router 70
Node 701	Router 70
Node 702	Router 70
Node 703	Router 70
Node 704	Router 70
Node 705	Router 70
Node 706	Router 70
Node 707	Router 70
Node 708	Router 70
Node 709	Router 70
Node 710	Router 71
Node 711	Router 71
Node 712	Router 71
Node 713	Router 71
Node 714	Router 71
Node 715	Router 71
Node 716	Router 71
Node 717	Router 71
Node 718	Router 71
Node 719	Router 71
Node 720	Router 72
Node 721	Router 72
Node 722	Router 72
Node 723	Router 72
Node 724	Router 72
Node 725	Router 72
Node 726	Router 72
Node 727	Router 72
Node 728	Router 72
Node 729	Router 72
Node 730	Router 73
Node 731	Router 73
Node 732	Router 73
Node 733	Router 73
Node 734	Router 73
Node 735	Router 73
Node 736	Router 73
Node 737	Router 73
Node 738	Router 73
Node 739	Router 73
Node 740	Router 74
Node 741	Router 74
Node 742	Router 74
Node 743	Router 74
Node 744	Router 74
Node 745	Router 74
Node 746	Router 74
Node 747	Router 74
Node 748	Router 74
Node 749	Router 74
Node 750	Router 75
Node 751	Router 75
Node 752	Router 75
Node 753	Router 75
Node 754	Router 75
Node 755	Router 75
Node 756	Router 75
Node 757	Router 75
Node 758	Router 75
Node 759	Router 75
Node 760	Router 76
Node 761	Router 76
Node 762	Router 76
Node 763	Router 76
Node 764	Router 76
Node 765	Router 76
Node 766	Router 76
Node 767	Router 76
Node 768	Router 76
Node 769	Router 76
Node 770	Router 77
Node 771	Router 77
Node 772	Router 77
Node 773	Router 77
Node 774	Router 77
Node 775	Router 77
Node 776	Router 77
Node 777	Router 77
Node 778	Router 77
Node 779	Router 77
Node 780	Router 78
Node 781	Router 78
Node 782	Router 78
Node 783	Router 78
Node 784	Router 78
Node 785	Router 78
Node 786	Router 78
Node 787	Router 78
Node 788	Router 78
Node 789	Router 78
Node 790	Router 79
Node 791	Router 79
Node 792	Router 79
Node 793	Router 79
Node 794	Router 79
Node 795	Router 79
Node 796	Router 79
Node 797	Router 79
Node 798	Router 79
Node 799	Router 79
Node 800	Router 80
Node 801	Router 80
Node 802	Router 80
Node 803	Router 80
Node 804	Router 80
Node 805	Router 80
Node 806	Router 80
Node 807	Router 80
Node 808	Router 80
Node 809	Router 80
Node 810	Router 81
Node 811	Router 81
Node 812	Router 81
Node 813	Router 81
Node 814	Router 81
Node 815	Router 81
Node 816	Router 81
Node 817	Router 81
Node 818	Router 81
Node 819	Router 81
Node 820	Router 82
Node 821	Router 82
Node 822	Router 82
Node 823	Router 82
Node 824	Router 82
Node 825	Router 82
Node 826	Router 82
Node 827	Router 82
Node 828	Router 82
Node 829	Router 82
Node 830	Router 83
Node 831	Router 83
Node 832	Router 83
Node 833	Router 83
Node 834	Router 83
Node 835	Router 83
Node 836	Router 83
Node 837	Router 83
Node 838	Router 83
Node 839	Router 83
Node 840	Router 84
Node 841	Router 84
Node 842	Router 84
Node 843	Router 84
Node 844	Router 84
Node 845	Router 84
Node 846	Router 84
Node 847	Router 84
Node 848	Router 84
Node 849	Router 84
Node 850	Router 85
Node 851	Router 85
Node 852	Router 85
Node 853	Router 85
Node 854	Router 85
Node 855	Router 85
Node 856	Router 85
Node 857	Router 85
Node 858	Router 85
Node 859	Router 85
Node 860	Router 86
Node 861	Router 86
Node 862	Router 86
Node 863	Router 86
Node 864	Router 86
Node 865	Router 86
Node 866	Router 86
Node 867	Router 86
Node 868	Router 86
Node 869	Router 86
Node 870	Router 87
Node 871	Router 87
Node 872	Router 87
Node 873	Router 87
Node 874	Router 87
Node 875	Router 87
Node 876	Router 87
Node 877	Router 87
Node 878	Router 87
Node 879	Router 87
Node 880	Router 88
Node 881	Router 88
Node 882	Router 88
Node 883	Router 88
Node 884	Router 88
Node 885	Router 88
Node 886	Router 88
Node 887	Router 88
Node 888	Router 88
Node 889	Router 88
Node 890	Router 89
Node 891	Router 89
Node 892	Router 89
Node 893	Router 89
Node 894	Router 89
Node 895	Router 89
Node 896	Router 89
Node 897	Router 89
Node 898	Router 89
Node 899	Router 89
Node 900	Router 90
Node 901	Router 90
Node 902	Router 90
Node 903	Router 90
Node 904	Router 90
Node 905	Router 90
Node 906	Router 90
Node 907	Router 90
Node 908	Router 90
Node 909	Router 90
Node 910	Router 91
Node 911	Router 91
Node 912	Router 91
Node 913	Router 91
Node 914	Router 91
Node 915	Router 91
Node 916	Router 91
Node 917	Router 91
Node 918	Router 91
Node 919	Router 91
Node 920	Router 92
Node 921	Router 92
Node 922	Router 92
Node 923	Router 92
Node 924	Router 92
Node 925	Router 92
Node 926	Router 92
Node 927	Router 92
Node 928	Router 92
Node 929	Router 92
Node 930	Router 93
Node 931	Router 93
Node 932	Router 93
Node 933	Router 93
Node 934	Router 93
Node 935	Router 93
Node 936	Router 93
Node 937	Router 93
Node 938	Router 93
Node 939	Router 93
Node 940	Router 94
Node 941	Router 94
Node 942	Router 94
Node 943	Router 94
Node 944	Router 94
Node 945	Router 94
Node 946	Router 94
Node 947	Router 94
Node 948	Router 94
Node 949	Router 94
Node 950	Router 95
Node 951	Router 95
Node 952	Router 95
Node 953	Router 95
Node 954	Router 95
Node 955	Router 95
Node 956	Router 95
Node 957	Router 95
Node 958	Router 95
Node 959	Router 95
Node 960	Router 96
Node 961	Router 96
Node 962	Router 96
Node 963	Router 96
Node 964	Router 96
Node 965	Router 96
Node 966	Router 96
Node 967	Router 96
Node 968	Router 96
Node 969	Router 96
Node 970	Router 97
Node 971	Router 97
Node 972	Router 97
Node 973	Router 97
Node 974	Router 97
Node 975	Router 97
Node 976	Router 97
Node 977	Router 97
Node 978	Router 97
Node 979	Router 97
Node 980	Router 98
Node 981	Router 98
Node 982	Router 98
Node 983	Router 98
Node 984	Router 98
Node 985	Router 98
Node 986	Router 98
Node 987	Router 98
Node 988	Router 98
Node 989	Router 98
Node 990	Router 99
Node 991	Router 99
Node 992	Router 99
Node 993	Router 99
Node 994	Router 99
Node 995	Router 99
Node 996	Router 99
Node 997	Router 99
Node 998	Router 99
Node 999	Router 99
Node 1000	Router 100
Node 1001	Router 100
Node 1002	Router 100
Node 1003	Router 100
Node 1004	Router 100
Node 1005	Router 100
Node 1006	Router 100
Node 1007	Router 100
Node 1008	Router 100
Node 1009	Router 100
Node 1010	Router 101
Node 1011	Router 101
Node 1012	Router 101
Node 1013	Router 101
Node 1014	Router 101
Node 1015	Router 101
Node 1016	Router 101
Node 1017	Router 101
Node 1018	Router 101
Node 1019	Router 101
Node 1020	Router 102
Node 1021	Router 102
Node 1022	Router 102
Node 1023	Router 102
Node 1024	Router 102
Node 1025	Router 102
Node 1026	Router 102
Node 1027	Router 102
Node 1028	Router 102
Node 1029	Router 102
Node 1030	Router 103
Node 1031	Router 103
Node 1032	Router 103
Node 1033	Router 103
Node 1034	Router 103
Node 1035	Router 103
Node 1036	Router 103
Node 1037	Router 103
Node 1038	Router 103
Node 1039	Router 103
Node 1040	Router 104
Node 1041	Router 104
Node 1042	Router 104
Node 1043	Router 104
Node 1044	Router 104
Node 1045	Router 104
Node 1046	Router 104
Node 1047	Router 104
Node 1048	Router 104
Node 1049	Router 104
Node 1050	Router 105
Node 1051	Router 105
Node 1052	Router 105
Node 1053	Router 105
Node 1054	Router 105
Node 1055	Router 105
Node 1056	Router 105
Node 1057	Router 105
Node 1058	Router 105
Node 1059	Router 105
Node 1060	Router 106
Node 1061	Router 106
Node 1062	Router 106
Node 1063	Router 106
Node 1064	Router 106
Node 1065	Router 106
Node 1066	Router 106
Node 1067	Router 106
Node 1068	Router 106
Node 1069	Router 106
Node 1070	Router 107
Node 1071	Router 107
Node 1072	Router 107
Node 1073	Router 107
Node 1074	Router 107
Node 1075	Router 107
Node 1076	Router 107
Node 1077	Router 107
Node 1078	Router 107
Node 1079	Router 107
Node 1080	Router 108
Node 1081	Router 108
Node 1082	Router 108
Node 1083	Router 108
Node 1084	Router 108
Node 1085	Router 108
Node 1086	Router 108
Node 1087	Router 108
Node 1088	Router 108
Node 1089	Router 108
Node 1090	Router 109
Node 1091	Router 109
Node 1092	Router 109
Node 1093	Router 109
Node 1094	Router 109
Node 1095	Router 109
Node 1096	Router 109
Node 1097	Router 109
Node 1098	Router 109
Node 1099	Router 109
Node 1100	Router 110
Node 1101	Router 110
Node 1102	Router 110
Node 1103	Router 110
Node 1104	Router 110
Node 1105	Router 110
Node 1106	Router 110
Node 1107	Router 110
Node 1108	Router 110
Node 1109	Router 110
Node 1110	Router 111
Node 1111	Router 111
Node 1112	Router 111
Node 1113	Router 111
Node 1114	Router 111
Node 1115	Router 111
Node 1116	Router 111
Node 1117	Router 111
Node 1118	Router 111
Node 1119	Router 111
Node 1120	Router 112
Node 1121	Router 112
Node 1122	Router 112
Node 1123	Router 112
Node 1124	Router 112
Node 1125	Router 112
Node 1126	Router 112
Node 1127	Router 112
Node 1128	Router 112
Node 1129	Router 112
Node 1130	Router 113
Node 1131	Router 113
Node 1132	Router 113
Node 1133	Router 113
Node 1134	Router 113
Node 1135	Router 113
Node 1136	Router 113
Node 1137	Router 113
Node 1138	Router 113
Node 1139	Router 113
Node 1140	Router 114
Node 1141	Router 114
Node 1142	Router 114
Node 1143	Router 114
Node 1144	Router 114
Node 1145	Router 114
Node 1146	Router 114
Node 1147	Router 114
Node 1148	Router 114
Node 1149	Router 114
Node 1150	Router 115
Node 1151	Router 115
Node 1152	Router 115
Node 1153	Router 115
Node 1154	Router 115
Node 1155	Router 115
Node 1156	Router 115
Node 1157	Router 115
Node 1158	Router 115
Node 1159	Router 115
Node 1160	Router 116
Node 1161	Router 116
Node 1162	Router 116
Node 1163	Router 116
Node 1164	Router 116
Node 1165	Router 116
Node 1166	Router 116
Node 1167	Router 116
Node 1168	Router 116
Node 1169	Router 116
Node 1170	Router 117
Node 1171	Router 117
Node 1172	Router 117
Node 1173	Router 117
Node 1174	Router 117
Node 1175	Router 117
Node 1176	Router 117
Node 1177	Router 117
Node 1178	Router 117
Node 1179	Router 117
Node 1180	Router 118
Node 1181	Router 118
Node 1182	Router 118
Node 1183	Router 118
Node 1184	Router 118
Node 1185	Router 118
Node 1186	Router 118
Node 1187	Router 118
Node 1188	Router 118
Node 1189	Router 118
Node 1190	Router 119
Node 1191	Router 119
Node 1192	Router 119
Node 1193	Router 119
Node 1194	Router 119
Node 1195	Router 119
Node 1196	Router 119
Node 1197	Router 119
Node 1198	Router 119
Node 1199	Router 119
Node 1200	Router 120
Node 1201	Router 120
Node 1202	Router 120
Node 1203	Router 120
Node 1204	Router 120
Node 1205	Router 120
Node 1206	Router 120
Node 1207	Router 120
Node 1208	Router 120
Node 1209	Router 120
Node 1210	Router 121
Node 1211	Router 121
Node 1212	Router 121
Node 1213	Router 121
Node 1214	Router 121
Node 1215	Router 121
Node 1216	Router 121
Node 1217	Router 121
Node 1218	Router 121
Node 1219	Router 121
Node 1220	Router 122
Node 1221	Router 122
Node 1222	Router 122
Node 1223	Router 122
Node 1224	Router 122
Node 1225	Router 122
Node 1226	Router 122
Node 1227	Router 122
Node 1228	Router 122
Node 1229	Router 122
Node 1230	Router 123
Node 1231	Router 123
Node 1232	Router 123
Node 1233	Router 123
Node 1234	Router 123
Node 1235	Router 123
Node 1236	Router 123
Node 1237	Router 123
Node 1238	Router 123
Node 1239	Router 123
Node 1240	Router 124
Node 1241	Router 124
Node 1242	Router 124
Node 1243	Router 124
Node 1244	Router 124
Node 1245	Router 124
Node 1246	Router 124
Node 1247	Router 124
Node 1248	Router 124
Node 1249	Router 124
Node 1250	Router 125
Node 1251	Router 125
Node 1252	Router 125
Node 1253	Router 125
Node 1254	Router 125
Node 1255	Router 125
Node 1256	Router 125
Node 1257	Router 125
Node 1258	Router 125
Node 1259	Router 125
Node 1260	Router 126
Node 1261	Router 126
Node 1262	Router 126
Node 1263	Router 126
Node 1264	Router 126
Node 1265	Router 126
Node 1266	Router 126
Node 1267	Router 126
Node 1268	Router 126
Node 1269	Router 126
Node 1270	Router 127
Node 1271	Router 127
Node 1272	Router 127
Node 1273	Router 127
Node 1274	Router 127
Node 1275	Router 127
Node 1276	Router 127
Node 1277	Router 127
Node 1278	Router 127
Node 1279	Router 127
Node 1280	Router 128
Node 1281	Router 128
Node 1282	Router 128
Node 1283	Router 128
Node 1284	Router 128
Node 1285	Router 128
Node 1286	Router 128
Node 1287	Router 128
Node 1288	Router 128
Node 1289	Router 128
Node 1290	Router 129
Node 1291	Router 129
Node 1292	Router 129
Node 1293	Router 129
Node 1294	Router 129
Node 1295	Router 129
Node 1296	Router 129
Node 1297	Router 129
Node 1298	Router 129
Node 1299	Router 129
Node 1300	Router 130
Node 1301	Router 130
Node 1302	Router 130
Node 1303	Router 130
Node 1304	Router 130
Node 1305	Router 130
Node 1306	Router 130
Node 1307	Router 130
Node 1308	Router 130
Node 1309	Router 130
Node 1310	Router 131
Node 1311	Router 131
Node 1312	Router 131
Node 1313	Router 131
Node 1314	Router 131
Node 1315	Router 131
Node 1316	Router 131
Node 1317	Router 131
Node 1318	Router 131
Node 1319	Router 131
Node 1320	Router 132
Node 1321	Router 132
Node 1322	Router 132
Node 1323	Router 132
Node 1324	Router 132
Node 1325	Router 132
Node 1326	Router 132
Node 1327	Router 132
Node 1328	Router 132
Node 1329	Router 132
Node 1330	Router 133
Node 1331	Router 133
Node 1332	Router 133
Node 1333	Router 133
Node 1334	Router 133
Node 1335	Router 133
Node 1336	Router 133
Node 1337	Router 133
Node 1338	Router 133
Node 1339	Router 133
Node 1340	Router 134
Node 1341	Router 134
Node 1342	Router 134
Node 1343	Router 134
Node 1344	Router 134
Node 1345	Router 134
Node 1346	Router 134
Node 1347	Router 134
Node 1348	Router 134
Node 1349	Router 134
Node 1350	Router 135
Node 1351	Router 135
Node 1352	Router 135
Node 1353	Router 135
Node 1354	Router 135
Node 1355	Router 135
Node 1356	Router 135
Node 1357	Router 135
Node 1358	Router 135
Node 1359	Router 135
Node 1360	Router 136
Node 1361	Router 136
Node 1362	Router 136
Node 1363	Router 136
Node 1364	Router 136
Node 1365	Router 136
Node 1366	Router 136
Node 1367	Router 136
Node 1368	Router 136
Node 1369	Router 136
Node 1370	Router 137
Node 1371	Router 137
Node 1372	Router 137
Node 1373	Router 137
Node 1374	Router 137
Node 1375	Router 137
Node 1376	Router 137
Node 1377	Router 137
Node 1378	Router 137
Node 1379	Router 137
Node 1380	Router 138
Node 1381	Router 138
Node 1382	Router 138
Node 1383	Router 138
Node 1384	Router 138
Node 1385	Router 138
Node 1386	Router 138
Node 1387	Router 138
Node 1388	Router 138
Node 1389	Router 138
Node 1390	Router 139
Node 1391	Router 139
Node 1392	Router 139
Node 1393	Router 139
Node 1394	Router 139
Node 1395	Router 139
Node 1396	Router 139
Node 1397	Router 139
Node 1398	Router 139
Node 1399	Router 139
Node 1400	Router 140
Node 1401	Router 140
Node 1402	Router 140
Node 1403	Router 140
Node 1404	Router 140
Node 1405	Router 140
Node 1406	Router 140
Node 1407	Router 140
Node 1408	Router 140
Node 1409	Router 140
Node 1410	Router 141
Node 1411	Router 141
Node 1412	Router 141
Node 1413	Router 141
Node 1414	Router 141
Node 1415	Router 141
Node 1416	Router 141
Node 1417	Router 141
Node 1418	Router 141
Node 1419	Router 141
Node 1420	Router 142
Node 1421	Router 142
Node 1422	Router 142
Node 1423	Router 142
Node 1424	Router 142
Node 1425	Router 142
Node 1426	Router 142
Node 1427	Router 142
Node 1428	Router 142
Node 1429	Router 142
Node 1430	Router 143
Node 1431	Router 143
Node 1432	Router 143
Node 1433	Router 143
Node 1434	Router 143
Node 1435	Router 143
Node 1436	Router 143
Node 1437	Router 143
Node 1438	Router 143
Node 1439	Router 143
Node 1440	Router 144
Node 1441	Router 144
Node 1442	Router 144
Node 1443	Router 144
Node 1444	Router 144
Node 1445	Router 144
Node 1446	Router 144
Node 1447	Router 144
Node 1448	Router 144
Node 1449	Router 144
Node 1450	Router 145
Node 1451	Router 145
Node 1452	Router 145
Node 1453	Router 145
Node 1454	Router 145
Node 1455	Router 145
Node 1456	Router 145
Node 1457	Router 145
Node 1458	Router 145
Node 1459	Router 145
Node 1460	Router 146
Node 1461	Router 146
Node 1462	Router 146
Node 1463	Router 146
Node 1464	Router 146
Node 1465	Router 146
Node 1466	Router 146
Node 1467	Router 146
Node 1468	Router 146
Node 1469	Router 146
Node 1470	Router 147
Node 1471	Router 147
Node 1472	Router 147
Node 1473	Router 147
Node 1474	Router 147
Node 1475	Router 147
Node 1476	Router 147
Node 1477	Router 147
Node 1478	Router 147
Node 1479	Router 147
Node 1480	Router 148
Node 1481	Router 148
Node 1482	Router 148
Node 1483	Router 148
Node 1484	Router 148
Node 1485	Router 148
Node 1486	Router 148
Node 1487	Router 148
Node 1488	Router 148
Node 1489	Router 148
Node 1490	Router 149
Node 1491	Router 149
Node 1492	Router 149
Node 1493	Router 149
Node 1494	Router 149
Node 1495	Router 149
Node 1496	Router 149
Node 1497	Router 149
Node 1498	Router 149
Node 1499	Router 149
Node 1500	Router 150
Node 1501	Router 150
Node 1502	Router 150
Node 1503	Router 150
Node 1504	Router 150
Node 1505	Router 150
Node 1506	Router 150
Node 1507	Router 150
Node 1508	Router 150
Node 1509	Router 150
Node 1510	Router 151
Node 1511	Router 151
Node 1512	Router 151
Node 1513	Router 151
Node 1514	Router 151
Node 1515	Router 151
Node 1516	Router 151
Node 1517	Router 151
Node 1518	Router 151
Node 1519	Router 151
Node 1520	Router 152
Node 1521	Router 152
Node 1522	Router 152
Node 1523	Router 152
Node 1524	Router 152
Node 1525	Router 152
Node 1526	Router 152
Node 1527	Router 152
Node 1528	Router 152
Node 1529	Router 152
Node 1530	Router 153
Node 1531	Router 153
Node 1532	Router 153
Node 1533	Router 153
Node 1534	Router 153
Node 1535	Router 153
Node 1536	Router 153
Node 1537	Router 153
Node 1538	Router 153
Node 1539	Router 153
Node 1540	Router 154
Node 1541	Router 154
Node 1542	Router 154
Node 1543	Router 154
Node 1544	Router 154
Node 1545	Router 154
Node 1546	Router 154
Node 1547	Router 154
Node 1548	Router 154
Node 1549	Router 154
Node 1550	Router 155
Node 1551	Router 155
Node 1552	Router 155
Node 1553	Router 155
Node 1554	Router 155
Node 1555	Router 155
Node 1556	Router 155
Node 1557	Router 155
Node 1558	Router 155
Node 1559	Router 155
Node 1560	Router 156
Node 1561	Router 156
Node 1562	Router 156
Node 1563	Router 156
Node 1564	Router 156
Node 1565	Router 156
Node 1566	Router 156
Node 1567	Router 156
Node 1568	Router 156
Node 1569	Router 156
Node 1570	Router 157
Node 1571	Router 157
Node 1572	Router 157
Node 1573	Router 157
Node 1574	Router 157
Node 1575	Router 157
Node 1576	Router 157
Node 1577	Router 157
Node 1578	Router 157
Node 1579	Router 157
Node 1580	Router 158
Node 1581	Router 158
Node 1582	Router 158
Node 1583	Router 158
Node 1584	Router 158
Node 1585	Router 158
Node 1586	Router 158
Node 1587	Router 158
Node 1588	Router 158
Node 1589	Router 158
Node 1590	Router 159
Node 1591	Router 159
Node 1592	Router 159
Node 1593	Router 159
Node 1594	Router 159
Node 1595	Router 159
Node 1596	Router 159
Node 1597	Router 159
Node 1598	Router 159
Node 1599	Router 159
Node 1600	Router 160
Node 1601	Router 160
Node 1602	Router 160
Node 1603	Router 160
Node 1604	Router 160
Node 1605	Router 160
Node 1606	Router 160
Node 1607	Router 160
Node 1608	Router 160
Node 1609	Router 160
Node 1610	Router 161
Node 1611	Router 161
Node 1612	Router 161
Node 1613	Router 161
Node 1614	Router 161
Node 1615	Router 161
Node 1616	Router 161
Node 1617	Router 161
Node 1618	Router 161
Node 1619	Router 161
Node 1620	Router 162
Node 1621	Router 162
Node 1622	Router 162
Node 1623	Router 162
Node 1624	Router 162
Node 1625	Router 162
Node 1626	Router 162
Node 1627	Router 162
Node 1628	Router 162
Node 1629	Router 162
Node 1630	Router 163
Node 1631	Router 163
Node 1632	Router 163
Node 1633	Router 163
Node 1634	Router 163
Node 1635	Router 163
Node 1636	Router 163
Node 1637	Router 163
Node 1638	Router 163
Node 1639	Router 163
Node 1640	Router 164
Node 1641	Router 164
Node 1642	Router 164
Node 1643	Router 164
Node 1644	Router 164
Node 1645	Router 164
Node 1646	Router 164
Node 1647	Router 164
Node 1648	Router 164
Node 1649	Router 164
Node 1650	Router 165
Node 1651	Router 165
Node 1652	Router 165
Node 1653	Router 165
Node 1654	Router 165
Node 1655	Router 165
Node 1656	Router 165
Node 1657	Router 165
Node 1658	Router 165
Node 1659	Router 165
Node 1660	Router 166
Node 1661	Router 166
Node 1662	Router 166
Node 1663	Router 166
Node 1664	Router 166
Node 1665	Router 166
Node 1666	Router 166
Node 1667	Router 166
Node 1668	Router 166
Node 1669	Router 166
Node 1670	Router 167
Node 1671	Router 167
Node 1672	Router 167
Node 1673	Router 167
Node 1674	Router 167
Node 1675	Router 167
Node 1676	Router 167
Node 1677	Router 167
Node 1678	Router 167
Node 1679	Router 167
Node 1680	Router 168
Node 1681	Router 168
Node 1682	Router 168
Node 1683	Router 168
Node 1684	Router 168
Node 1685	Router 168
Node 1686	Router 168
Node 1687	Router 168
Node 1688	Router 168
Node 1689	Router 168
Node 1690	Router 169
Node 1691	Router 169
Node 1692	Router 169
Node 1693	Router 169
Node 1694	Router 169
Node 1695	Router 169
Node 1696	Router 169
Node 1697	Router 169
Node 1698	Router 169
Node 1699	Router 169
Node 1700	Router 170
Node 1701	Router 170
Node 1702	Router 170
Node 1703	Router 170
Node 1704	Router 170
Node 1705	Router 170
Node 1706	Router 170
Node 1707	Router 170
Node 1708	Router 170
Node 1709	Router 170
Node 1710	Router 171
Node 1711	Router 171
Node 1712	Router 171
Node 1713	Router 171
Node 1714	Router 171
Node 1715	Router 171
Node 1716	Router 171
Node 1717	Router 171
Node 1718	Router 171
Node 1719	Router 171
Node 1720	Router 172
Node 1721	Router 172
Node 1722	Router 172
Node 1723	Router 172
Node 1724	Router 172
Node 1725	Router 172
Node 1726	Router 172
Node 1727	Router 172
Node 1728	Router 172
Node 1729	Router 172
Node 1730	Router 173
Node 1731	Router 173
Node 1732	Router 173
Node 1733	Router 173
Node 1734	Router 173
Node 1735	Router 173
Node 1736	Router 173
Node 1737	Router 173
Node 1738	Router 173
Node 1739	Router 173
Node 1740	Router 174
Node 1741	Router 174
Node 1742	Router 174
Node 1743	Router 174
Node 1744	Router 174
Node 1745	Router 174
Node 1746	Router 174
Node 1747	Router 174
Node 1748	Router 174
Node 1749	Router 174
Node 1750	Router 175
Node 1751	Router 175
Node 1752	Router 175
Node 1753	Router 175
Node 1754	Router 175
Node 1755	Router 175
Node 1756	Router 175
Node 1757	Router 175
Node 1758	Router 175
Node 1759	Router 175
Node 1760	Router 176
Node 1761	Router 176
Node 1762	Router 176
Node 1763	Router 176
Node 1764	Router 176
Node 1765	Router 176
Node 1766	Router 176
Node 1767	Router 176
Node 1768	Router 176
Node 1769	Router 176
Node 1770	Router 177
Node 1771	Router 177
Node 1772	Router 177
Node 1773	Router 177
Node 1774	Router 177
Node 1775	Router 177
Node 1776	Router 177
Node 1777	Router 177
Node 1778	Router 177
Node 1779	Router 177
Node 1780	Router 178
Node 1781	Router 178
Node 1782	Router 178
Node 1783	Router 178
Node 1784	Router 178
Node 1785	Router 178
Node 1786	Router 178
Node 1787	Router 178
Node 1788	Router 178
Node 1789	Router 178
Node 1790	Router 179
Node 1791	Router 179
Node 1792	Router 179
Node 1793	Router 179
Node 1794	Router 179
Node 1795	Router 179
Node 1796	Router 179
Node 1797	Router 179
Node 1798	Router 179
Node 1799	Router 179
Node 1800	Router 180
Node 1801	Router 180
Node 1802	Router 180
Node 1803	Router 180
Node 1804	Router 180
Node 1805	Router 180
Node 1806	Router 180
Node 1807	Router 180
Node 1808	Router 180
Node 1809	Router 180
Node 1810	Router 181
Node 1811	Router 181
Node 1812	Router 181
Node 1813	Router 181
Node 1814	Router 181
Node 1815	Router 181
Node 1816	Router 181
Node 1817	Router 181
Node 1818	Router 181
Node 1819	Router 181
Node 1820	Router 182
Node 1821	Router 182
Node 1822	Router 182
Node 1823	Router 182
Node 1824	Router 182
Node 1825	Router 182
Node 1826	Router 182
Node 1827	Router 182
Node 1828	Router 182
Node 1829	Router 182
Node 1830	Router 183
Node 1831	Router 183
Node 1832	Router 183
Node 1833	Router 183
Node 1834	Router 183
Node 1835	Router 183
Node 1836	Router 183
Node 1837	Router 183
Node 1838	Router 183
Node 1839	Router 183
Node 1840	Router 184
Node 1841	Router 184
Node 1842	Router 184
Node 1843	Router 184
Node 1844	Router 184
Node 1845	Router 184
Node 1846	Router 184
Node 1847	Router 184
Node 1848	Router 184
Node 1849	Router 184
Node 1850	Router 185
Node 1851	Router 185
Node 1852	Router 185
Node 1853	Router 185
Node 1854	Router 185
Node 1855	Router 185
Node 1856	Router 185
Node 1857	Router 185
Node 1858	Router 185
Node 1859	Router 185
Node 1860	Router 186
Node 1861	Router 186
Node 1862	Router 186
Node 1863	Router 186
Node 1864	Router 186
Node 1865	Router 186
Node 1866	Router 186
Node 1867	Router 186
Node 1868	Router 186
Node 1869	Router 186
Node 1870	Router 187
Node 1871	Router 187
Node 1872	Router 187
Node 1873	Router 187
Node 1874	Router 187
Node 1875	Router 187
Node 1876	Router 187
Node 1877	Router 187
Node 1878	Router 187
Node 1879	Router 187
Node 1880	Router 188
Node 1881	Router 188
Node 1882	Router 188
Node 1883	Router 188
Node 1884	Router 188
Node 1885	Router 188
Node 1886	Router 188
Node 1887	Router 188
Node 1888	Router 188
Node 1889	Router 188
Node 1890	Router 189
Node 1891	Router 189
Node 1892	Router 189
Node 1893	Router 189
Node 1894	Router 189
Node 1895	Router 189
Node 1896	Router 189
Node 1897	Router 189
Node 1898	Router 189
Node 1899	Router 189
Node 1900	Router 190
Node 1901	Router 190
Node 1902	Router 190
Node 1903	Router 190
Node 1904	Router 190
Node 1905	Router 190
Node 1906	Router 190
Node 1907	Router 190
Node 1908	Router 190
Node 1909	Router 190
Node 1910	Router 191
Node 1911	Router 191
Node 1912	Router 191
Node 1913	Router 191
Node 1914	Router 191
Node 1915	Router 191
Node 1916	Router 191
Node 1917	Router 191
Node 1918	Router 191
Node 1919	Router 191
Node 1920	Router 192
Node 1921	Router 192
Node 1922	Router 192
Node 1923	Router 192
Node 1924	Router 192
Node 1925	Router 192
Node 1926	Router 192
Node 1927	Router 192
Node 1928	Router 192
Node 1929	Router 192
Node 1930	Router 193
Node 1931	Router 193
Node 1932	Router 193
Node 1933	Router 193
Node 1934	Router 193
Node 1935	Router 193
Node 1936	Router 193
Node 1937	Router 193
Node 1938	Router 193
Node 1939	Router 193
Node 1940	Router 194
Node 1941	Router 194
Node 1942	Router 194
Node 1943	Router 194
Node 1944	Router 194
Node 1945	Router 194
Node 1946	Router 194
Node 1947	Router 194
Node 1948	Router 194
Node 1949	Router 194
Node 1950	Router 195
Node 1951	Router 195
Node 1952	Router 195
Node 1953	Router 195
Node 1954	Router 195
Node 1955	Router 195
Node 1956	Router 195
Node 1957	Router 195
Node 1958	Router 195
Node 1959	Router 195
Node 1960	Router 196
Node 1961	Router 196
Node 1962	Router 196
Node 1963	Router 196
Node 1964	Router 196
Node 1965	Router 196
Node 1966	Router 196
Node 1967	Router 196
Node 1968	Router 196
Node 1969	Router 196
Node 1970	Router 197
Node 1971	Router 197
Node 1972	Router 197
Node 1973	Router 197
Node 1974	Router 197
Node 1975	Router 197
Node 1976	Router 197
Node 1977	Router 197
Node 1978	Router 197
Node 1979	Router 197
Node 1980	Router 198
Node 1981	Router 198
Node 1982	Router 198
Node 1983	Router 198
Node 1984	Router 198
Node 1985	Router 198
Node 1986	Router 198
Node 1987	Router 198
Node 1988	Router 198
Node 1989	Router 198
Node 1990	Router 199
Node 1991	Router 199
Node 1992	Router 199
Node 1993	Router 199
Node 1994	Router 199
Node 1995	Router 199
Node 1996	Router 199
Node 1997	Router 199
Node 1998	Router 199
Node 1999	Router 199
Node 2000	Router 200
Node 2001	Router 200
Node 2002	Router 200
Node 2003	Router 200
Node 2004	Router 200
Node 2005	Router 200
Node 2006	Router 200
Node 2007	Router 200
Node 2008	Router 200
Node 2009	Router 200
Node 2010	Router 201
Node 2011	Router 201
Node 2012	Router 201
Node 2013	Router 201
Node 2014	Router 201
Node 2015	Router 201
Node 2016	Router 201
Node 2017	Router 201
Node 2018	Router 201
Node 2019	Router 201
Node 2020	Router 202
Node 2021	Router 202
Node 2022	Router 202
Node 2023	Router 202
Node 2024	Router 202
Node 2025	Router 202
Node 2026	Router 202
Node 2027	Router 202
Node 2028	Router 202
Node 2029	Router 202
Node 2030	Router 203
Node 2031	Router 203
Node 2032	Router 203
Node 2033	Router 203
Node 2034	Router 203
Node 2035	Router 203
Node 2036	Router 203
Node 2037	Router 203
Node 2038	Router 203
Node 2039	Router 203
Node 2040	Router 204
Node 2041	Router 204
Node 2042	Router 204
Node 2043	Router 204
Node 2044	Router 204
Node 2045	Router 204
Node 2046	Router 204
Node 2047	Router 204
Node 2048	Router 204
Node 2049	Router 204
Node 2050	Router 205
Node 2051	Router 205
Node 2052	Router 205
Node 2053	Router 205
Node 2054	Router 205
Node 2055	Router 205
Node 2056	Router 205
Node 2057	Router 205
Node 2058	Router 205
Node 2059	Router 205
Node 2060	Router 206
Node 2061	Router 206
Node 2062	Router 206
Node 2063	Router 206
Node 2064	Router 206
Node 2065	Router 206
Node 2066	Router 206
Node 2067	Router 206
Node 2068	Router 206
Node 2069	Router 206
Node 2070	Router 207
Node 2071	Router 207
Node 2072	Router 207
Node 2073	Router 207
Node 2074	Router 207
Node 2075	Router 207
Node 2076	Router 207
Node 2077	Router 207
Node 2078	Router 207
Node 2079	Router 207
Node 2080	Router 208
Node 2081	Router 208
Node 2082	Router 208
Node 2083	Router 208
Node 2084	Router 208
Node 2085	Router 208
Node 2086	Router 208
Node 2087	Router 208
Node 2088	Router 208
Node 2089	Router 208
Node 2090	Router 209
Node 2091	Router 209
Node 2092	Router 209
Node 2093	Router 209
Node 2094	Router 209
Node 2095	Router 209
Node 2096	Router 209
Node 2097	Router 209
Node 2098	Router 209
Node 2099	Router 209
Node 2100	Router 210
Node 2101	Router 210
Node 2102	Router 210
Node 2103	Router 210
Node 2104	Router 210
Node 2105	Router 210
Node 2106	Router 210
Node 2107	Router 210
Node 2108	Router 210
Node 2109	Router 210
Node 2110	Router 211
Node 2111	Router 211
Node 2112	Router 211
Node 2113	Router 211
Node 2114	Router 211
Node 2115	Router 211
Node 2116	Router 211
Node 2117	Router 211
Node 2118	Router 211
Node 2119	Router 211
Node 2120	Router 212
Node 2121	Router 212
Node 2122	Router 212
Node 2123	Router 212
Node 2124	Router 212
Node 2125	Router 212
Node 2126	Router 212
Node 2127	Router 212
Node 2128	Router 212
Node 2129	Router 212
Node 2130	Router 213
Node 2131	Router 213
Node 2132	Router 213
Node 2133	Router 213
Node 2134	Router 213
Node 2135	Router 213
Node 2136	Router 213
Node 2137	Router 213
Node 2138	Router 213
Node 2139	Router 213
Node 2140	Router 214
Node 2141	Router 214
Node 2142	Router 214
Node 2143	Router 214
Node 2144	Router 214
Node 2145	Router 214
Node 2146	Router 214
Node 2147	Router 214
Node 2148	Router 214
Node 2149	Router 214
Node 2150	Router 215
Node 2151	Router 215
Node 2152	Router 215
Node 2153	Router 215
Node 2154	Router 215
Node 2155	Router 215
Node 2156	Router 215
Node 2157	Router 215
Node 2158	Router 215
Node 2159	Router 215
Node 2160	Router 216
Node 2161	Router 216
Node 2162	Router 216
Node 2163	Router 216
Node 2164	Router 216
Node 2165	Router 216
Node 2166	Router 216
Node 2167	Router 216
Node 2168	Router 216
Node 2169	Router 216
Node 2170	Router 217
Node 2171	Router 217
Node 2172	Router 217
Node 2173	Router 217
Node 2174	Router 217
Node 2175	Router 217
Node 2176	Router 217
Node 2177	Router 217
Node 2178	Router 217
Node 2179	Router 217
Node 2180	Router 218
Node 2181	Router 218
Node 2182	Router 218
Node 2183	Router 218
Node 2184	Router 218
Node 2185	Router 218
Node 2186	Router 218
Node 2187	Router 218
Node 2188	Router 218
Node 2189	Router 218
Node 2190	Router 219
Node 2191	Router 219
Node 2192	Router 219
Node 2193	Router 219
Node 2194	Router 219
Node 2195	Router 219
Node 2196	Router 219
Node 2197	Router 219
Node 2198	Router 219
Node 2199	Router 219
Node 2200	Router 220
Node 2201	Router 220
Node 2202	Router 220
Node 2203	Router 220
Node 2204	Router 220
Node 2205	Router 220
Node 2206	Router 220
Node 2207	Router 220
Node 2208	Router 220
Node 2209	Router 220
Node 2210	Router 221
Node 2211	Router 221
Node 2212	Router 221
Node 2213	Router 221
Node 2214	Router 221
Node 2215	Router 221
Node 2216	Router 221
Node 2217	Router 221
Node 2218	Router 221
Node 2219	Router 221
Node 2220	Router 222
Node 2221	Router 222
Node 2222	Router 222
Node 2223	Router 222
Node 2224	Router 222
Node 2225	Router 222
Node 2226	Router 222
Node 2227	Router 222
Node 2228	Router 222
Node 2229	Router 222
Node 2230	Router 223
Node 2231	Router 223
Node 2232	Router 223
Node 2233	Router 223
Node 2234	Router 223
Node 2235	Router 223
Node 2236	Router 223
Node 2237	Router 223
Node 2238	Router 223
Node 2239	Router 223
Node 2240	Router 224
Node 2241	Router 224
Node 2242	Router 224
Node 2243	Router 224
Node 2244	Router 224
Node 2245	Router 224
Node 2246	Router 224
Node 2247	Router 224
Node 2248	Router 224
Node 2249	Router 224
Node 2250	Router 225
Node 2251	Router 225
Node 2252	Router 225
Node 2253	Router 225
Node 2254	Router 225
Node 2255	Router 225
Node 2256	Router 225
Node 2257	Router 225
Node 2258	Router 225
Node 2259	Router 225
Node 2260	Router 226
Node 2261	Router 226
Node 2262	Router 226
Node 2263	Router 226
Node 2264	Router 226
Node 2265	Router 226
Node 2266	Router 226
Node 2267	Router 226
Node 2268	Router 226
Node 2269	Router 226
Node 2270	Router 227
Node 2271	Router 227
Node 2272	Router 227
Node 2273	Router 227
Node 2274	Router 227
Node 2275	Router 227
Node 2276	Router 227
Node 2277	Router 227
Node 2278	Router 227
Node 2279	Router 227
Node 2280	Router 228
Node 2281	Router 228
Node 2282	Router 228
Node 2283	Router 228
Node 2284	Router 228
Node 2285	Router 228
Node 2286	Router 228
Node 2287	Router 228
Node 2288	Router 228
Node 2289	Router 228
Node 2290	Router 229
Node 2291	Router 229
Node 2292	Router 229
Node 2293	Router 229
Node 2294	Router 229
Node 2295	Router 229
Node 2296	Router 229
Node 2297	Router 229
Node 2298	Router 229
Node 2299	Router 229
Node 2300	Router 230
Node 2301	Router 230
Node 2302	Router 230
Node 2303	Router 230
Node 2304	Router 230
Node 2305	Router 230
Node 2306	Router 230
Node 2307	Router 230
Node 2308	Router 230
Node 2309	Router 230
Node 2310	Router 231
Node 2311	Router 231
Node 2312	Router 231
Node 2313	Router 231
Node 2314	Router 231
Node 2315	Router 231
Node 2316	Router 231
Node 2317	Router 231
Node 2318	Router 231
Node 2319	Router 231
Node 2320	Router 232
Node 2321	Router 232
Node 2322	Router 232
Node 2323	Router 232
Node 2324	Router 232
Node 2325	Router 232
Node 2326	Router 232
Node 2327	Router 232
Node 2328	Router 232
Node 2329	Router 232
Node 2330	Router 233
Node 2331	Router 233
Node 2332	Router 233
Node 2333	Router 233
Node 2334	Router 233
Node 2335	Router 233
Node 2336	Router 233
Node 2337	Router 233
Node 2338	Router 233
Node 2339	Router 233
Node 2340	Router 234
Node 2341	Router 234
Node 2342	Router 234
Node 2343	Router 234
Node 2344	Router 234
Node 2345	Router 234
Node 2346	Router 234
Node 2347	Router 234
Node 2348	Router 234
Node 2349	Router 234
Node 2350	Router 235
Node 2351	Router 235
Node 2352	Router 235
Node 2353	Router 235
Node 2354	Router 235
Node 2355	Router 235
Node 2356	Router 235
Node 2357	Router 235
Node 2358	Router 235
Node 2359	Router 235
Node 2360	Router 236
Node 2361	Router 236
Node 2362	Router 236
Node 2363	Router 236
Node 2364	Router 236
Node 2365	Router 236
Node 2366	Router 236
Node 2367	Router 236
Node 2368	Router 236
Node 2369	Router 236
Node 2370	Router 237
Node 2371	Router 237
Node 2372	Router 237
Node 2373	Router 237
Node 2374	Router 237
Node 2375	Router 237
Node 2376	Router 237
Node 2377	Router 237
Node 2378	Router 237
Node 2379	Router 237
Node 2380	Router 238
Node 2381	Router 238
Node 2382	Router 238
Node 2383	Router 238
Node 2384	Router 238
Node 2385	Router 238
Node 2386	Router 238
Node 2387	Router 238
Node 2388	Router 238
Node 2389	Router 238
Node 2390	Router 239
Node 2391	Router 239
Node 2392	Router 239
Node 2393	Router 239
Node 2394	Router 239
Node 2395	Router 239
Node 2396	Router 239
Node 2397	Router 239
Node 2398	Router 239
Node 2399	Router 239
Node 2400	Router 240
Node 2401	Router 240
Node 2402	Router 240
Node 2403	Router 240
Node 2404	Router 240
Node 2405	Router 240
Node 2406	Router 240
Node 2407	Router 240
Node 2408	Router 240
Node 2409	Router 240
Node 2410	Router 241
Node 2411	Router 241
Node 2412	Router 241
Node 2413	Router 241
Node 2414	Router 241
Node 2415	Router 241
Node 2416	Router 241
Node 2417	Router 241
Node 2418	Router 241
Node 2419	Router 241
Node 2420	Router 242
Node 2421	Router 242
Node 2422	Router 242
Node 2423	Router 242
Node 2424	Router 242
Node 2425	Router 242
Node 2426	Router 242
Node 2427	Router 242
Node 2428	Router 242
Node 2429	Router 242
Node 2430	Router 243
Node 2431	Router 243
Node 2432	Router 243
Node 2433	Router 243
Node 2434	Router 243
Node 2435	Router 243
Node 2436	Router 243
Node 2437	Router 243
Node 2438	Router 243
Node 2439	Router 243
Node 2440	Router 244
Node 2441	Router 244
Node 2442	Router 244
Node 2443	Router 244
Node 2444	Router 244
Node 2445	Router 244
Node 2446	Router 244
Node 2447	Router 244
Node 2448	Router 244
Node 2449	Router 244
Node 2450	Router 245
Node 2451	Router 245
Node 2452	Router 245
Node 2453	Router 245
Node 2454	Router 245
Node 2455	Router 245
Node 2456	Router 245
Node 2457	Router 245
Node 2458	Router 245
Node 2459	Router 245
Node 2460	Router 246
Node 2461	Router 246
Node 2462	Router 246
Node 2463	Router 246
Node 2464	Router 246
Node 2465	Router 246
Node 2466	Router 246
Node 2467	Router 246
Node 2468	Router 246
Node 2469	Router 246
Node 2470	Router 247
Node 2471	Router 247
Node 2472	Router 247
Node 2473	Router 247
Node 2474	Router 247
Node 2475	Router 247
Node 2476	Router 247
Node 2477	Router 247
Node 2478	Router 247
Node 2479	Router 247
Node 2480	Router 248
Node 2481	Router 248
Node 2482	Router 248
Node 2483	Router 248
Node 2484	Router 248
Node 2485	Router 248
Node 2486	Router 248
Node 2487	Router 248
Node 2488	Router 248
Node 2489	Router 248
Node 2490	Router 249
Node 2491	Router 249
Node 2492	Router 249
Node 2493	Router 249
Node 2494	Router 249
Node 2495	Router 249
Node 2496	Router 249
Node 2497	Router 249
Node 2498	Router 249
Node 2499	Router 249
Node 2500	Router 250
Node 2501	Router 250
Node 2502	Router 250
Node 2503	Router 250
Node 2504	Router 250
Node 2505	Router 250
Node 2506	Router 250
Node 2507	Router 250
Node 2508	Router 250
Node 2509	Router 250
Node 2510	Router 251
Node 2511	Router 251
Node 2512	Router 251
Node 2513	Router 251
Node 2514	Router 251
Node 2515	Router 251
Node 2516	Router 251
Node 2517	Router 251
Node 2518	Router 251
Node 2519	Router 251
Node 2520	Router 252
Node 2521	Router 252
Node 2522	Router 252
Node 2523	Router 252
Node 2524	Router 252
Node 2525	Router 252
Node 2526	Router 252
Node 2527	Router 252
Node 2528	Router 252
Node 2529	Router 252
Node 2530	Router 253
Node 2531	Router 253
Node 2532	Router 253
Node 2533	Router 253
Node 2534	Router 253
Node 2535	Router 253
Node 2536	Router 253
Node 2537	Router 253
Node 2538	Router 253
Node 2539	Router 253
Node 2540	Router 254
Node 2541	Router 254
Node 2542	Router 254
Node 2543	Router 254
Node 2544	Router 254
Node 2545	Router 254
Node 2546	Router 254
Node 2547	Router 254
Node 2548	Router 254
Node 2549	Router 254
Node 2550	Router 255
Node 2551	Router 255
Node 2552	Router 255
Node 2553	Router 255
Node 2554	Router 255
Node 2555	Router 255
Node 2556	Router 255
Node 2557	Router 255
Node 2558	Router 255
Node 2559	Router 255
Node 2560	Router 256
Node 2561	Router 256
Node 2562	Router 256
Node 2563	Router 256
Node 2564	Router 256
Node 2565	Router 256
Node 2566	Router 256
Node 2567	Router 256
Node 2568	Router 256
Node 2569	Router 256
Node 2570	Router 257
Node 2571	Router 257
Node 2572	Router 257
Node 2573	Router 257
Node 2574	Router 257
Node 2575	Router 257
Node 2576	Router 257
Node 2577	Router 257
Node 2578	Router 257
Node 2579	Router 257
Node 2580	Router 258
Node 2581	Router 258
Node 2582	Router 258
Node 2583	Router 258
Node 2584	Router 258
Node 2585	Router 258
Node 2586	Router 258
Node 2587	Router 258
Node 2588	Router 258
Node 2589	Router 258
Node 2590	Router 259
Node 2591	Router 259
Node 2592	Router 259
Node 2593	Router 259
Node 2594	Router 259
Node 2595	Router 259
Node 2596	Router 259
Node 2597	Router 259
Node 2598	Router 259
Node 2599	Router 259
Node 2600	Router 260
Node 2601	Router 260
Node 2602	Router 260
Node 2603	Router 260
Node 2604	Router 260
Node 2605	Router 260
Node 2606	Router 260
Node 2607	Router 260
Node 2608	Router 260
Node 2609	Router 260
Node 2610	Router 261
Node 2611	Router 261
Node 2612	Router 261
Node 2613	Router 261
Node 2614	Router 261
Node 2615	Router 261
Node 2616	Router 261
Node 2617	Router 261
Node 2618	Router 261
Node 2619	Router 261
Node 2620	Router 262
Node 2621	Router 262
Node 2622	Router 262
Node 2623	Router 262
Node 2624	Router 262
Node 2625	Router 262
Node 2626	Router 262
Node 2627	Router 262
Node 2628	Router 262
Node 2629	Router 262
Node 2630	Router 263
Node 2631	Router 263
Node 2632	Router 263
Node 2633	Router 263
Node 2634	Router 263
Node 2635	Router 263
Node 2636	Router 263
Node 2637	Router 263
Node 2638	Router 263
Node 2639	Router 263
Node 2640	Router 264
Node 2641	Router 264
Node 2642	Router 264
Node 2643	Router 264
Node 2644	Router 264
Node 2645	Router 264
Node 2646	Router 264
Node 2647	Router 264
Node 2648	Router 264
Node 2649	Router 264
Node 2650	Router 265
Node 2651	Router 265
Node 2652	Router 265
Node 2653	Router 265
Node 2654	Router 265
Node 2655	Router 265
Node 2656	Router 265
Node 2657	Router 265
Node 2658	Router 265
Node 2659	Router 265
Node 2660	Router 266
Node 2661	Router 266
Node 2662	Router 266
Node 2663	Router 266
Node 2664	Router 266
Node 2665	Router 266
Node 2666	Router 266
Node 2667	Router 266
Node 2668	Router 266
Node 2669	Router 266
Node 2670	Router 267
Node 2671	Router 267
Node 2672	Router 267
Node 2673	Router 267
Node 2674	Router 267
Node 2675	Router 267
Node 2676	Router 267
Node 2677	Router 267
Node 2678	Router 267
Node 2679	Router 267
Node 2680	Router 268
Node 2681	Router 268
Node 2682	Router 268
Node 2683	Router 268
Node 2684	Router 268
Node 2685	Router 268
Node 2686	Router 268
Node 2687	Router 268
Node 2688	Router 268
Node 2689	Router 268
Node 2690	Router 269
Node 2691	Router 269
Node 2692	Router 269
Node 2693	Router 269
Node 2694	Router 269
Node 2695	Router 269
Node 2696	Router 269
Node 2697	Router 269
Node 2698	Router 269
Node 2699	Router 269
Node 2700	Router 270
Node 2701	Router 270
Node 2702	Router 270
Node 2703	Router 270
Node 2704	Router 270
Node 2705	Router 270
Node 2706	Router 270
Node 2707	Router 270
Node 2708	Router 270
Node 2709	Router 270
Node 2710	Router 271
Node 2711	Router 271
Node 2712	Router 271
Node 2713	Router 271
Node 2714	Router 271
Node 2715	Router 271
Node 2716	Router 271
Node 2717	Router 271
Node 2718	Router 271
Node 2719	Router 271
Node 2720	Router 272
Node 2721	Router 272
Node 2722	Router 272
Node 2723	Router 272
Node 2724	Router 272
Node 2725	Router 272
Node 2726	Router 272
Node 2727	Router 272
Node 2728	Router 272
Node 2729	Router 272
Node 2730	Router 273
Node 2731	Router 273
Node 2732	Router 273
Node 2733	Router 273
Node 2734	Router 273
Node 2735	Router 273
Node 2736	Router 273
Node 2737	Router 273
Node 2738	Router 273
Node 2739	Router 273
Node 2740	Router 274
Node 2741	Router 274
Node 2742	Router 274
Node 2743	Router 274
Node 2744	Router 274
Node 2745	Router 274
Node 2746	Router 274
Node 2747	Router 274
Node 2748	Router 274
Node 2749	Router 274
Node 2750	Router 275
Node 2751	Router 275
Node 2752	Router 275
Node 2753	Router 275
Node 2754	Router 275
Node 2755	Router 275
Node 2756	Router 275
Node 2757	Router 275
Node 2758	Router 275
Node 2759	Router 275
Node 2760	Router 276
Node 2761	Router 276
Node 2762	Router 276
Node 2763	Router 276
Node 2764	Router 276
Node 2765	Router 276
Node 2766	Router 276
Node 2767	Router 276
Node 2768	Router 276
Node 2769	Router 276
Node 2770	Router 277
Node 2771	Router 277
Node 2772	Router 277
Node 2773	Router 277
Node 2774	Router 277
Node 2775	Router 277
Node 2776	Router 277
Node 2777	Router 277
Node 2778	Router 277
Node 2779	Router 277
Node 2780	Router 278
Node 2781	Router 278
Node 2782	Router 278
Node 2783	Router 278
Node 2784	Router 278
Node 2785	Router 278
Node 2786	Router 278
Node 2787	Router 278
Node 2788	Router 278
Node 2789	Router 278
Node 2790	Router 279
Node 2791	Router 279
Node 2792	Router 279
Node 2793	Router 279
Node 2794	Router 279
Node 2795	Router 279
Node 2796	Router 279
Node 2797	Router 279
Node 2798	Router 279
Node 2799	Router 279
Node 2800	Router 280
Node 2801	Router 280
Node 2802	Router 280
Node 2803	Router 280
Node 2804	Router 280
Node 2805	Router 280
Node 2806	Router 280
Node 2807	Router 280
Node 2808	Router 280
Node 2809	Router 280
Node 2810	Router 281
Node 2811	Router 281
Node 2812	Router 281
Node 2813	Router 281
Node 2814	Router 281
Node 2815	Router 281
Node 2816	Router 281
Node 2817	Router 281
Node 2818	Router 281
Node 2819	Router 281
Node 2820	Router 282
Node 2821	Router 282
Node 2822	Router 282
Node 2823	Router 282
Node 2824	Router 282
Node 2825	Router 282
Node 2826	Router 282
Node 2827	Router 282
Node 2828	Router 282
Node 2829	Router 282
Node 2830	Router 283
Node 2831	Router 283
Node 2832	Router 283
Node 2833	Router 283
Node 2834	Router 283
Node 2835	Router 283
Node 2836	Router 283
Node 2837	Router 283
Node 2838	Router 283
Node 2839	Router 283
Node 2840	Router 284
Node 2841	Router 284
Node 2842	Router 284
Node 2843	Router 284
Node 2844	Router 284
Node 2845	Router 284
Node 2846	Router 284
Node 2847	Router 284
Node 2848	Router 284
Node 2849	Router 284
Node 2850	Router 285
Node 2851	Router 285
Node 2852	Router 285
Node 2853	Router 285
Node 2854	Router 285
Node 2855	Router 285
Node 2856	Router 285
Node 2857	Router 285
Node 2858	Router 285
Node 2859	Router 285
Node 2860	Router 286
Node 2861	Router 286
Node 2862	Router 286
Node 2863	Router 286
Node 2864	Router 286
Node 2865	Router 286
Node 2866	Router 286
Node 2867	Router 286
Node 2868	Router 286
Node 2869	Router 286
Node 2870	Router 287
Node 2871	Router 287
Node 2872	Router 287
Node 2873	Router 287
Node 2874	Router 287
Node 2875	Router 287
Node 2876	Router 287
Node 2877	Router 287
Node 2878	Router 287
Node 2879	Router 287
Node 2880	Router 288
Node 2881	Router 288
Node 2882	Router 288
Node 2883	Router 288
Node 2884	Router 288
Node 2885	Router 288
Node 2886	Router 288
Node 2887	Router 288
Node 2888	Router 288
Node 2889	Router 288
Node 2890	Router 289
Node 2891	Router 289
Node 2892	Router 289
Node 2893	Router 289
Node 2894	Router 289
Node 2895	Router 289
Node 2896	Router 289
Node 2897	Router 289
Node 2898	Router 289
Node 2899	Router 289
Node 2900	Router 290
Node 2901	Router 290
Node 2902	Router 290
Node 2903	Router 290
Node 2904	Router 290
Node 2905	Router 290
Node 2906	Router 290
Node 2907	Router 290
Node 2908	Router 290
Node 2909	Router 290
Node 2910	Router 291
Node 2911	Router 291
Node 2912	Router 291
Node 2913	Router 291
Node 2914	Router 291
Node 2915	Router 291
Node 2916	Router 291
Node 2917	Router 291
Node 2918	Router 291
Node 2919	Router 291
Node 2920	Router 292
Node 2921	Router 292
Node 2922	Router 292
Node 2923	Router 292
Node 2924	Router 292
Node 2925	Router 292
Node 2926	Router 292
Node 2927	Router 292
Node 2928	Router 292
Node 2929	Router 292
Node 2930	Router 293
Node 2931	Router 293
Node 2932	Router 293
Node 2933	Router 293
Node 2934	Router 293
Node 2935	Router 293
Node 2936	Router 293
Node 2937	Router 293
Node 2938	Router 293
Node 2939	Router 293
Node 2940	Router 294
Node 2941	Router 294
Node 2942	Router 294
Node 2943	Router 294
Node 2944	Router 294
Node 2945	Router 294
Node 2946	Router 294
Node 2947	Router 294
Node 2948	Router 294
Node 2949	Router 294
Node 2950	Router 295
Node 2951	Router 295
Node 2952	Router 295
Node 2953	Router 295
Node 2954	Router 295
Node 2955	Router 295
Node 2956	Router 295
Node 2957	Router 295
Node 2958	Router 295
Node 2959	Router 295
Node 2960	Router 296
Node 2961	Router 296
Node 2962	Router 296
Node 2963	Router 296
Node 2964	Router 296
Node 2965	Router 296
Node 2966	Router 296
Node 2967	Router 296
Node 2968	Router 296
Node 2969	Router 296
Node 2970	Router 297
Node 2971	Router 297
Node 2972	Router 297
Node 2973	Router 297
Node 2974	Router 297
Node 2975	Router 297
Node 2976	Router 297
Node 2977	Router 297
Node 2978	Router 297
Node 2979	Router 297
Node 2980	Router 298
Node 2981	Router 298
Node 2982	Router 298
Node 2983	Router 298
Node 2984	Router 298
Node 2985	Router 298
Node 2986	Router 298
Node 2987	Router 298
Node 2988	Router 298
Node 2989	Router 298
Node 2990	Router 299
Node 2991	Router 299
Node 2992	Router 299
Node 2993	Router 299
Node 2994	Router 299
Node 2995	Router 299
Node 2996	Router 299
Node 2997	Router 299
Node 2998	Router 299
Node 2999	Router 299
Node 3000	Router 300
Node 3001	Router 300
Node 3002	Router 300
Node 3003	Router 300
Node 3004	Router 300
Node 3005	Router 300
Node 3006	Router 300
Node 3007	Router 300
Node 3008	Router 300
Node 3009	Router 300
Node 3010	Router 301
Node 3011	Router 301
Node 3012	Router 301
Node 3013	Router 301
Node 3014	Router 301
Node 3015	Router 301
Node 3016	Router 301
Node 3017	Router 301
Node 3018	Router 301
Node 3019	Router 301
Node 3020	Router 302
Node 3021	Router 302
Node 3022	Router 302
Node 3023	Router 302
Node 3024	Router 302
Node 3025	Router 302
Node 3026	Router 302
Node 3027	Router 302
Node 3028	Router 302
Node 3029	Router 302
Node 3030	Router 303
Node 3031	Router 303
Node 3032	Router 303
Node 3033	Router 303
Node 3034	Router 303
Node 3035	Router 303
Node 3036	Router 303
Node 3037	Router 303
Node 3038	Router 303
Node 3039	Router 303
Node 3040	Router 304
Node 3041	Router 304
Node 3042	Router 304
Node 3043	Router 304
Node 3044	Router 304
Node 3045	Router 304
Node 3046	Router 304
Node 3047	Router 304
Node 3048	Router 304
Node 3049	Router 304
Node 3050	Router 305
Node 3051	Router 305
Node 3052	Router 305
Node 3053	Router 305
Node 3054	Router 305
Node 3055	Router 305
Node 3056	Router 305
Node 3057	Router 305
Node 3058	Router 305
Node 3059	Router 305
Node 3060	Router 306
Node 3061	Router 306
Node 3062	Router 306
Node 3063	Router 306
Node 3064	Router 306
Node 3065	Router 306
Node 3066	Router 306
Node 3067	Router 306
Node 3068	Router 306
Node 3069	Router 306
Node 3070	Router 307
Node 3071	Router 307
Node 3072	Router 307
Node 3073	Router 307
Node 3074	Router 307
Node 3075	Router 307
Node 3076	Router 307
Node 3077	Router 307
Node 3078	Router 307
Node 3079	Router 307
Node 3080	Router 308
Node 3081	Router 308
Node 3082	Router 308
Node 3083	Router 308
Node 3084	Router 308
Node 3085	Router 308
Node 3086	Router 308
Node 3087	Router 308
Node 3088	Router 308
Node 3089	Router 308
Node 3090	Router 309
Node 3091	Router 309
Node 3092	Router 309
Node 3093	Router 309
Node 3094	Router 309
Node 3095	Router 309
Node 3096	Router 309
Node 3097	Router 309
Node 3098	Router 309
Node 3099	Router 309
Node 3100	Router 310
Node 3101	Router 310
Node 3102	Router 310
Node 3103	Router 310
Node 3104	Router 310
Node 3105	Router 310
Node 3106	Router 310
Node 3107	Router 310
Node 3108	Router 310
Node 3109	Router 310
Node 3110	Router 311
Node 3111	Router 311
Node 3112	Router 311
Node 3113	Router 311
Node 3114	Router 311
Node 3115	Router 311
Node 3116	Router 311
Node 3117	Router 311
Node 3118	Router 311
Node 3119	Router 311
Node 3120	Router 312
Node 3121	Router 312
Node 3122	Router 312
Node 3123	Router 312
Node 3124	Router 312
Node 3125	Router 312
Node 3126	Router 312
Node 3127	Router 312
Node 3128	Router 312
Node 3129	Router 312
Node 3130	Router 313
Node 3131	Router 313
Node 3132	Router 313
Node 3133	Router 313
Node 3134	Router 313
Node 3135	Router 313
Node 3136	Router 313
Node 3137	Router 313
Node 3138	Router 313
Node 3139	Router 313
Node 3140	Router 314
Node 3141	Router 314
Node 3142	Router 314
Node 3143	Router 314
Node 3144	Router 314
Node 3145	Router 314
Node 3146	Router 314
Node 3147	Router 314
Node 3148	Router 314
Node 3149	Router 314
Node 3150	Router 315
Node 3151	Router 315
Node 3152	Router 315
Node 3153	Router 315
Node 3154	Router 315
Node 3155	Router 315
Node 3156	Router 315
Node 3157	Router 315
Node 3158	Router 315
Node 3159	Router 315
Node 3160	Router 316
Node 3161	Router 316
Node 3162	Router 316
Node 3163	Router 316
Node 3164	Router 316
Node 3165	Router 316
Node 3166	Router 316
Node 3167	Router 316
Node 3168	Router 316
Node 3169	Router 316
Node 3170	Router 317
Node 3171	Router 317
Node 3172	Router 317
Node 3173	Router 317
Node 3174	Router 317
Node 3175	Router 317
Node 3176	Router 317
Node 3177	Router 317
Node 3178	Router 317
Node 3179	Router 317
Node 3180	Router 318
Node 3181	Router 318
Node 3182	Router 318
Node 3183	Router 318
Node 3184	Router 318
Node 3185	Router 318
Node 3186	Router 318
Node 3187	Router 318
Node 3188	Router 318
Node 3189	Router 318

****************router to node listing*************
Router 0
	 Node 0 lat 1
	 Node 1 lat 1
	 Node 2 lat 1
	 Node 3 lat 1
	 Node 4 lat 1
	 Node 5 lat 1
	 Node 6 lat 1
	 Node 7 lat 1
	 Node 8 lat 1
	 Node 9 lat 1
Router 1
	 Node 10 lat 1
	 Node 11 lat 1
	 Node 12 lat 1
	 Node 13 lat 1
	 Node 14 lat 1
	 Node 15 lat 1
	 Node 16 lat 1
	 Node 17 lat 1
	 Node 18 lat 1
	 Node 19 lat 1
Router 2
	 Node 20 lat 1
	 Node 21 lat 1
	 Node 22 lat 1
	 Node 23 lat 1
	 Node 24 lat 1
	 Node 25 lat 1
	 Node 26 lat 1
	 Node 27 lat 1
	 Node 28 lat 1
	 Node 29 lat 1
Router 3
	 Node 30 lat 1
	 Node 31 lat 1
	 Node 32 lat 1
	 Node 33 lat 1
	 Node 34 lat 1
	 Node 35 lat 1
	 Node 36 lat 1
	 Node 37 lat 1
	 Node 38 lat 1
	 Node 39 lat 1
Router 4
	 Node 40 lat 1
	 Node 41 lat 1
	 Node 42 lat 1
	 Node 43 lat 1
	 Node 44 lat 1
	 Node 45 lat 1
	 Node 46 lat 1
	 Node 47 lat 1
	 Node 48 lat 1
	 Node 49 lat 1
Router 5
	 Node 50 lat 1
	 Node 51 lat 1
	 Node 52 lat 1
	 Node 53 lat 1
	 Node 54 lat 1
	 Node 55 lat 1
	 Node 56 lat 1
	 Node 57 lat 1
	 Node 58 lat 1
	 Node 59 lat 1
Router 6
	 Node 60 lat 1
	 Node 61 lat 1
	 Node 62 lat 1
	 Node 63 lat 1
	 Node 64 lat 1
	 Node 65 lat 1
	 Node 66 lat 1
	 Node 67 lat 1
	 Node 68 lat 1
	 Node 69 lat 1
Router 7
	 Node 70 lat 1
	 Node 71 lat 1
	 Node 72 lat 1
	 Node 73 lat 1
	 Node 74 lat 1
	 Node 75 lat 1
	 Node 76 lat 1
	 Node 77 lat 1
	 Node 78 lat 1
	 Node 79 lat 1
Router 8
	 Node 80 lat 1
	 Node 81 lat 1
	 Node 82 lat 1
	 Node 83 lat 1
	 Node 84 lat 1
	 Node 85 lat 1
	 Node 86 lat 1
	 Node 87 lat 1
	 Node 88 lat 1
	 Node 89 lat 1
Router 9
	 Node 90 lat 1
	 Node 91 lat 1
	 Node 92 lat 1
	 Node 93 lat 1
	 Node 94 lat 1
	 Node 95 lat 1
	 Node 96 lat 1
	 Node 97 lat 1
	 Node 98 lat 1
	 Node 99 lat 1
Router 10
	 Node 100 lat 1
	 Node 101 lat 1
	 Node 102 lat 1
	 Node 103 lat 1
	 Node 104 lat 1
	 Node 105 lat 1
	 Node 106 lat 1
	 Node 107 lat 1
	 Node 108 lat 1
	 Node 109 lat 1
Router 11
	 Node 110 lat 1
	 Node 111 lat 1
	 Node 112 lat 1
	 Node 113 lat 1
	 Node 114 lat 1
	 Node 115 lat 1
	 Node 116 lat 1
	 Node 117 lat 1
	 Node 118 lat 1
	 Node 119 lat 1
Router 12
	 Node 120 lat 1
	 Node 121 lat 1
	 Node 122 lat 1
	 Node 123 lat 1
	 Node 124 lat 1
	 Node 125 lat 1
	 Node 126 lat 1
	 Node 127 lat 1
	 Node 128 lat 1
	 Node 129 lat 1
Router 13
	 Node 130 lat 1
	 Node 131 lat 1
	 Node 132 lat 1
	 Node 133 lat 1
	 Node 134 lat 1
	 Node 135 lat 1
	 Node 136 lat 1
	 Node 137 lat 1
	 Node 138 lat 1
	 Node 139 lat 1
Router 14
	 Node 140 lat 1
	 Node 141 lat 1
	 Node 142 lat 1
	 Node 143 lat 1
	 Node 144 lat 1
	 Node 145 lat 1
	 Node 146 lat 1
	 Node 147 lat 1
	 Node 148 lat 1
	 Node 149 lat 1
Router 15
	 Node 150 lat 1
	 Node 151 lat 1
	 Node 152 lat 1
	 Node 153 lat 1
	 Node 154 lat 1
	 Node 155 lat 1
	 Node 156 lat 1
	 Node 157 lat 1
	 Node 158 lat 1
	 Node 159 lat 1
Router 16
	 Node 160 lat 1
	 Node 161 lat 1
	 Node 162 lat 1
	 Node 163 lat 1
	 Node 164 lat 1
	 Node 165 lat 1
	 Node 166 lat 1
	 Node 167 lat 1
	 Node 168 lat 1
	 Node 169 lat 1
Router 17
	 Node 170 lat 1
	 Node 171 lat 1
	 Node 172 lat 1
	 Node 173 lat 1
	 Node 174 lat 1
	 Node 175 lat 1
	 Node 176 lat 1
	 Node 177 lat 1
	 Node 178 lat 1
	 Node 179 lat 1
Router 18
	 Node 180 lat 1
	 Node 181 lat 1
	 Node 182 lat 1
	 Node 183 lat 1
	 Node 184 lat 1
	 Node 185 lat 1
	 Node 186 lat 1
	 Node 187 lat 1
	 Node 188 lat 1
	 Node 189 lat 1
Router 19
	 Node 190 lat 1
	 Node 191 lat 1
	 Node 192 lat 1
	 Node 193 lat 1
	 Node 194 lat 1
	 Node 195 lat 1
	 Node 196 lat 1
	 Node 197 lat 1
	 Node 198 lat 1
	 Node 199 lat 1
Router 20
	 Node 200 lat 1
	 Node 201 lat 1
	 Node 202 lat 1
	 Node 203 lat 1
	 Node 204 lat 1
	 Node 205 lat 1
	 Node 206 lat 1
	 Node 207 lat 1
	 Node 208 lat 1
	 Node 209 lat 1
Router 21
	 Node 210 lat 1
	 Node 211 lat 1
	 Node 212 lat 1
	 Node 213 lat 1
	 Node 214 lat 1
	 Node 215 lat 1
	 Node 216 lat 1
	 Node 217 lat 1
	 Node 218 lat 1
	 Node 219 lat 1
Router 22
	 Node 220 lat 1
	 Node 221 lat 1
	 Node 222 lat 1
	 Node 223 lat 1
	 Node 224 lat 1
	 Node 225 lat 1
	 Node 226 lat 1
	 Node 227 lat 1
	 Node 228 lat 1
	 Node 229 lat 1
Router 23
	 Node 230 lat 1
	 Node 231 lat 1
	 Node 232 lat 1
	 Node 233 lat 1
	 Node 234 lat 1
	 Node 235 lat 1
	 Node 236 lat 1
	 Node 237 lat 1
	 Node 238 lat 1
	 Node 239 lat 1
Router 24
	 Node 240 lat 1
	 Node 241 lat 1
	 Node 242 lat 1
	 Node 243 lat 1
	 Node 244 lat 1
	 Node 245 lat 1
	 Node 246 lat 1
	 Node 247 lat 1
	 Node 248 lat 1
	 Node 249 lat 1
Router 25
	 Node 250 lat 1
	 Node 251 lat 1
	 Node 252 lat 1
	 Node 253 lat 1
	 Node 254 lat 1
	 Node 255 lat 1
	 Node 256 lat 1
	 Node 257 lat 1
	 Node 258 lat 1
	 Node 259 lat 1
Router 26
	 Node 260 lat 1
	 Node 261 lat 1
	 Node 262 lat 1
	 Node 263 lat 1
	 Node 264 lat 1
	 Node 265 lat 1
	 Node 266 lat 1
	 Node 267 lat 1
	 Node 268 lat 1
	 Node 269 lat 1
Router 27
	 Node 270 lat 1
	 Node 271 lat 1
	 Node 272 lat 1
	 Node 273 lat 1
	 Node 274 lat 1
	 Node 275 lat 1
	 Node 276 lat 1
	 Node 277 lat 1
	 Node 278 lat 1
	 Node 279 lat 1
Router 28
	 Node 280 lat 1
	 Node 281 lat 1
	 Node 282 lat 1
	 Node 283 lat 1
	 Node 284 lat 1
	 Node 285 lat 1
	 Node 286 lat 1
	 Node 287 lat 1
	 Node 288 lat 1
	 Node 289 lat 1
Router 29
	 Node 290 lat 1
	 Node 291 lat 1
	 Node 292 lat 1
	 Node 293 lat 1
	 Node 294 lat 1
	 Node 295 lat 1
	 Node 296 lat 1
	 Node 297 lat 1
	 Node 298 lat 1
	 Node 299 lat 1
Router 30
	 Node 300 lat 1
	 Node 301 lat 1
	 Node 302 lat 1
	 Node 303 lat 1
	 Node 304 lat 1
	 Node 305 lat 1
	 Node 306 lat 1
	 Node 307 lat 1
	 Node 308 lat 1
	 Node 309 lat 1
Router 31
	 Node 310 lat 1
	 Node 311 lat 1
	 Node 312 lat 1
	 Node 313 lat 1
	 Node 314 lat 1
	 Node 315 lat 1
	 Node 316 lat 1
	 Node 317 lat 1
	 Node 318 lat 1
	 Node 319 lat 1
Router 32
	 Node 320 lat 1
	 Node 321 lat 1
	 Node 322 lat 1
	 Node 323 lat 1
	 Node 324 lat 1
	 Node 325 lat 1
	 Node 326 lat 1
	 Node 327 lat 1
	 Node 328 lat 1
	 Node 329 lat 1
Router 33
	 Node 330 lat 1
	 Node 331 lat 1
	 Node 332 lat 1
	 Node 333 lat 1
	 Node 334 lat 1
	 Node 335 lat 1
	 Node 336 lat 1
	 Node 337 lat 1
	 Node 338 lat 1
	 Node 339 lat 1
Router 34
	 Node 340 lat 1
	 Node 341 lat 1
	 Node 342 lat 1
	 Node 343 lat 1
	 Node 344 lat 1
	 Node 345 lat 1
	 Node 346 lat 1
	 Node 347 lat 1
	 Node 348 lat 1
	 Node 349 lat 1
Router 35
	 Node 350 lat 1
	 Node 351 lat 1
	 Node 352 lat 1
	 Node 353 lat 1
	 Node 354 lat 1
	 Node 355 lat 1
	 Node 356 lat 1
	 Node 357 lat 1
	 Node 358 lat 1
	 Node 359 lat 1
Router 36
	 Node 360 lat 1
	 Node 361 lat 1
	 Node 362 lat 1
	 Node 363 lat 1
	 Node 364 lat 1
	 Node 365 lat 1
	 Node 366 lat 1
	 Node 367 lat 1
	 Node 368 lat 1
	 Node 369 lat 1
Router 37
	 Node 370 lat 1
	 Node 371 lat 1
	 Node 372 lat 1
	 Node 373 lat 1
	 Node 374 lat 1
	 Node 375 lat 1
	 Node 376 lat 1
	 Node 377 lat 1
	 Node 378 lat 1
	 Node 379 lat 1
Router 38
	 Node 380 lat 1
	 Node 381 lat 1
	 Node 382 lat 1
	 Node 383 lat 1
	 Node 384 lat 1
	 Node 385 lat 1
	 Node 386 lat 1
	 Node 387 lat 1
	 Node 388 lat 1
	 Node 389 lat 1
Router 39
	 Node 390 lat 1
	 Node 391 lat 1
	 Node 392 lat 1
	 Node 393 lat 1
	 Node 394 lat 1
	 Node 395 lat 1
	 Node 396 lat 1
	 Node 397 lat 1
	 Node 398 lat 1
	 Node 399 lat 1
Router 40
	 Node 400 lat 1
	 Node 401 lat 1
	 Node 402 lat 1
	 Node 403 lat 1
	 Node 404 lat 1
	 Node 405 lat 1
	 Node 406 lat 1
	 Node 407 lat 1
	 Node 408 lat 1
	 Node 409 lat 1
Router 41
	 Node 410 lat 1
	 Node 411 lat 1
	 Node 412 lat 1
	 Node 413 lat 1
	 Node 414 lat 1
	 Node 415 lat 1
	 Node 416 lat 1
	 Node 417 lat 1
	 Node 418 lat 1
	 Node 419 lat 1
Router 42
	 Node 420 lat 1
	 Node 421 lat 1
	 Node 422 lat 1
	 Node 423 lat 1
	 Node 424 lat 1
	 Node 425 lat 1
	 Node 426 lat 1
	 Node 427 lat 1
	 Node 428 lat 1
	 Node 429 lat 1
Router 43
	 Node 430 lat 1
	 Node 431 lat 1
	 Node 432 lat 1
	 Node 433 lat 1
	 Node 434 lat 1
	 Node 435 lat 1
	 Node 436 lat 1
	 Node 437 lat 1
	 Node 438 lat 1
	 Node 439 lat 1
Router 44
	 Node 440 lat 1
	 Node 441 lat 1
	 Node 442 lat 1
	 Node 443 lat 1
	 Node 444 lat 1
	 Node 445 lat 1
	 Node 446 lat 1
	 Node 447 lat 1
	 Node 448 lat 1
	 Node 449 lat 1
Router 45
	 Node 450 lat 1
	 Node 451 lat 1
	 Node 452 lat 1
	 Node 453 lat 1
	 Node 454 lat 1
	 Node 455 lat 1
	 Node 456 lat 1
	 Node 457 lat 1
	 Node 458 lat 1
	 Node 459 lat 1
Router 46
	 Node 460 lat 1
	 Node 461 lat 1
	 Node 462 lat 1
	 Node 463 lat 1
	 Node 464 lat 1
	 Node 465 lat 1
	 Node 466 lat 1
	 Node 467 lat 1
	 Node 468 lat 1
	 Node 469 lat 1
Router 47
	 Node 470 lat 1
	 Node 471 lat 1
	 Node 472 lat 1
	 Node 473 lat 1
	 Node 474 lat 1
	 Node 475 lat 1
	 Node 476 lat 1
	 Node 477 lat 1
	 Node 478 lat 1
	 Node 479 lat 1
Router 48
	 Node 480 lat 1
	 Node 481 lat 1
	 Node 482 lat 1
	 Node 483 lat 1
	 Node 484 lat 1
	 Node 485 lat 1
	 Node 486 lat 1
	 Node 487 lat 1
	 Node 488 lat 1
	 Node 489 lat 1
Router 49
	 Node 490 lat 1
	 Node 491 lat 1
	 Node 492 lat 1
	 Node 493 lat 1
	 Node 494 lat 1
	 Node 495 lat 1
	 Node 496 lat 1
	 Node 497 lat 1
	 Node 498 lat 1
	 Node 499 lat 1
Router 50
	 Node 500 lat 1
	 Node 501 lat 1
	 Node 502 lat 1
	 Node 503 lat 1
	 Node 504 lat 1
	 Node 505 lat 1
	 Node 506 lat 1
	 Node 507 lat 1
	 Node 508 lat 1
	 Node 509 lat 1
Router 51
	 Node 510 lat 1
	 Node 511 lat 1
	 Node 512 lat 1
	 Node 513 lat 1
	 Node 514 lat 1
	 Node 515 lat 1
	 Node 516 lat 1
	 Node 517 lat 1
	 Node 518 lat 1
	 Node 519 lat 1
Router 52
	 Node 520 lat 1
	 Node 521 lat 1
	 Node 522 lat 1
	 Node 523 lat 1
	 Node 524 lat 1
	 Node 525 lat 1
	 Node 526 lat 1
	 Node 527 lat 1
	 Node 528 lat 1
	 Node 529 lat 1
Router 53
	 Node 530 lat 1
	 Node 531 lat 1
	 Node 532 lat 1
	 Node 533 lat 1
	 Node 534 lat 1
	 Node 535 lat 1
	 Node 536 lat 1
	 Node 537 lat 1
	 Node 538 lat 1
	 Node 539 lat 1
Router 54
	 Node 540 lat 1
	 Node 541 lat 1
	 Node 542 lat 1
	 Node 543 lat 1
	 Node 544 lat 1
	 Node 545 lat 1
	 Node 546 lat 1
	 Node 547 lat 1
	 Node 548 lat 1
[...]
	 connected to router 264 using link 7353 at outport 19 lat 1
	 connected to router 290 using link 7354 at outport 20 lat 1
	 connected to router 293 using link 7355 at outport 21 lat 1
	 connected to router 297 using link 7356 at outport 22 lat 1
	 connected to router 299 using link 7357 at outport 23 lat 1
	 connected to router 300 using link 7358 at outport 24 lat 1
	 connected to router 301 using link 7359 at outport 25 lat 1
	 connected to router 302 using link 7360 at outport 26 lat 1
	 connected to router 305 using link 7361 at outport 27 lat 1
	 connected to router 307 using link 7362 at outport 28 lat 1
	 connected to router 310 using link 7363 at outport 29 lat 1
	 connected to router 311 using link 7364 at outport 30 lat 1
	 connected to router 312 using link 7365 at outport 31 lat 1
	 connected to router 313 using link 7366 at outport 32 lat 1
	 connected to router 315 using link 7367 at outport 33 lat 1
router 307
	 connected to router 5 using link 7368 at outport 10 lat 1
	 connected to router 34 using link 7369 at outport 11 lat 1
	 connected to router 63 using link 7370 at outport 12 lat 1
	 connected to router 92 using link 7371 at outport 13 lat 1
	 connected to router 121 using link 7372 at outport 14 lat 1
	 connected to router 150 using link 7373 at outport 15 lat 1
	 connected to router 179 using link 7374 at outport 16 lat 1
	 connected to router 208 using link 7375 at outport 17 lat 1
	 connected to router 237 using link 7376 at outport 18 lat 1
	 connected to router 266 using link 7377 at outport 19 lat 1
	 connected to router 291 using link 7378 at outport 20 lat 1
	 connected to router 294 using link 7379 at outport 21 lat 1
	 connected to router 298 using link 7380 at outport 22 lat 1
	 connected to router 300 using link 7381 at outport 23 lat 1
	 connected to router 301 using link 7382 at outport 24 lat 1
	 connected to router 302 using link 7383 at outport 25 lat 1
	 connected to router 303 using link 7384 at outport 26 lat 1
	 connected to router 306 using link 7385 at outport 27 lat 1
	 connected to router 308 using link 7386 at outport 28 lat 1
	 connected to router 311 using link 7387 at outport 29 lat 1
	 connected to router 312 using link 7388 at outport 30 lat 1
	 connected to router 313 using link 7389 at outport 31 lat 1
	 connected to router 314 using link 7390 at outport 32 lat 1
	 connected to router 316 using link 7391 at outport 33 lat 1
router 308
	 connected to router 7 using link 7392 at outport 10 lat 1
	 connected to router 36 using link 7393 at outport 11 lat 1
	 connected to router 65 using link 7394 at outport 12 lat 1
	 connected to router 94 using link 7395 at outport 13 lat 1
	 connected to router 123 using link 7396 at outport 14 lat 1
	 connected to router 152 using link 7397 at outport 15 lat 1
	 connected to router 181 using link 7398 at outport 16 lat 1
	 connected to router 210 using link 7399 at outport 17 lat 1
	 connected to router 239 using link 7400 at outport 18 lat 1
	 connected to router 268 using link 7401 at outport 19 lat 1
	 connected to router 292 using link 7402 at outport 20 lat 1
	 connected to router 295 using link 7403 at outport 21 lat 1
	 connected to router 299 using link 7404 at outport 22 lat 1
	 connected to router 301 using link 7405 at outport 23 lat 1
	 connected to router 302 using link 7406 at outport 24 lat 1
	 connected to router 303 using link 7407 at outport 25 lat 1
	 connected to router 304 using link 7408 at outport 26 lat 1
	 connected to router 307 using link 7409 at outport 27 lat 1
	 connected to router 309 using link 7410 at outport 28 lat 1
	 connected to router 312 using link 7411 at outport 29 lat 1
	 connected to router 313 using link 7412 at outport 30 lat 1
	 connected to router 314 using link 7413 at outport 31 lat 1
	 connected to router 315 using link 7414 at outport 32 lat 1
	 connected to router 317 using link 7415 at outport 33 lat 1
router 309
	 connected to router 9 using link 7416 at outport 10 lat 1
	 connected to router 38 using link 7417 at outport 11 lat 1
	 connected to router 67 using link 7418 at outport 12 lat 1
	 connected to router 96 using link 7419 at outport 13 lat 1
	 connected to router 125 using link 7420 at outport 14 lat 1
	 connected to router 154 using link 7421 at outport 15 lat 1
	 connected to router 183 using link 7422 at outport 16 lat 1
	 connected to router 212 using link 7423 at outport 17 lat 1
	 connected to router 241 using link 7424 at outport 18 lat 1
	 connected to router 270 using link 7425 at outport 19 lat 1
	 connected to router 293 using link 7426 at outport 20 lat 1
	 connected to router 296 using link 7427 at outport 21 lat 1
	 connected to router 300 using link 7428 at outport 22 lat 1
	 connected to router 302 using link 7429 at outport 23 lat 1
	 connected to router 303 using link 7430 at outport 24 lat 1
	 connected to router 304 using link 7431 at outport 25 lat 1
	 connected to router 305 using link 7432 at outport 26 lat 1
	 connected to router 308 using link 7433 at outport 27 lat 1
	 connected to router 310 using link 7434 at outport 28 lat 1
	 connected to router 313 using link 7435 at outport 29 lat 1
	 connected to router 314 using link 7436 at outport 30 lat 1
	 connected to router 315 using link 7437 at outport 31 lat 1
	 connected to router 316 using link 7438 at outport 32 lat 1
	 connected to router 318 using link 7439 at outport 33 lat 1
router 310
	 connected to router 11 using link 7440 at outport 10 lat 1
	 connected to router 40 using link 7441 at outport 11 lat 1
	 connected to router 69 using link 7442 at outport 12 lat 1
	 connected to router 98 using link 7443 at outport 13 lat 1
	 connected to router 127 using link 7444 at outport 14 lat 1
	 connected to router 156 using link 7445 at outport 15 lat 1
	 connected to router 185 using link 7446 at outport 16 lat 1
	 connected to router 214 using link 7447 at outport 17 lat 1
	 connected to router 243 using link 7448 at outport 18 lat 1
	 connected to router 272 using link 7449 at outport 19 lat 1
	 connected to router 290 using link 7450 at outport 20 lat 1
	 connected to router 294 using link 7451 at outport 21 lat 1
	 connected to router 297 using link 7452 at outport 22 lat 1
	 connected to router 301 using link 7453 at outport 23 lat 1
	 connected to router 303 using link 7454 at outport 24 lat 1
	 connected to router 304 using link 7455 at outport 25 lat 1
	 connected to router 305 using link 7456 at outport 26 lat 1
	 connected to router 306 using link 7457 at outport 27 lat 1
	 connected to router 309 using link 7458 at outport 28 lat 1
	 connected to router 311 using link 7459 at outport 29 lat 1
	 connected to router 314 using link 7460 at outport 30 lat 1
	 connected to router 315 using link 7461 at outport 31 lat 1
	 connected to router 316 using link 7462 at outport 32 lat 1
	 connected to router 317 using link 7463 at outport 33 lat 1
router 311
	 connected to router 13 using link 7464 at outport 10 lat 1
	 connected to router 42 using link 7465 at outport 11 lat 1
	 connected to router 71 using link 7466 at outport 12 lat 1
	 connected to router 100 using link 7467 at outport 13 lat 1
	 connected to router 129 using link 7468 at outport 14 lat 1
	 connected to router 158 using link 7469 at outport 15 lat 1
	 connected to router 187 using link 7470 at outport 16 lat 1
	 connected to router 216 using link 7471 at outport 17 lat 1
	 connected to router 245 using link 7472 at outport 18 lat 1
	 connected to router 274 using link 7473 at outport 19 lat 1
	 connected to router 291 using link 7474 at outport 20 lat 1
	 connected to router 295 using link 7475 at outport 21 lat 1
	 connected to router 298 using link 7476 at outport 22 lat 1
	 connected to router 302 using link 7477 at outport 23 lat 1
	 connected to router 304 using link 7478 at outport 24 lat 1
	 connected to router 305 using link 7479 at outport 25 lat 1
	 connected to router 306 using link 7480 at outport 26 lat 1
	 connected to router 307 using link 7481 at outport 27 lat 1
	 connected to router 310 using link 7482 at outport 28 lat 1
	 connected to router 312 using link 7483 at outport 29 lat 1
	 connected to router 315 using link 7484 at outport 30 lat 1
	 connected to router 316 using link 7485 at outport 31 lat 1
	 connected to router 317 using link 7486 at outport 32 lat 1
	 connected to router 318 using link 7487 at outport 33 lat 1
router 312
	 connected to router 15 using link 7488 at outport 10 lat 1
	 connected to router 44 using link 7489 at outport 11 lat 1
	 connected to router 73 using link 7490 at outport 12 lat 1
	 connected to router 102 using link 7491 at outport 13 lat 1
	 connected to router 131 using link 7492 at outport 14 lat 1
	 connected to router 160 using link 7493 at outport 15 lat 1
	 connected to router 189 using link 7494 at outport 16 lat 1
	 connected to router 218 using link 7495 at outport 17 lat 1
	 connected to router 247 using link 7496 at outport 18 lat 1
	 connected to router 276 using link 7497 at outport 19 lat 1
	 connected to router 290 using link 7498 at outport 20 lat 1
	 connected to router 292 using link 7499 at outport 21 lat 1
	 connected to router 296 using link 7500 at outport 22 lat 1
	 connected to router 299 using link 7501 at outport 23 lat 1
	 connected to router 303 using link 7502 at outport 24 lat 1
	 connected to router 305 using link 7503 at outport 25 lat 1
	 connected to router 306 using link 7504 at outport 26 lat 1
	 connected to router 307 using link 7505 at outport 27 lat 1
	 connected to router 308 using link 7506 at outport 28 lat 1
	 connected to router 311 using link 7507 at outport 29 lat 1
	 connected to router 313 using link 7508 at outport 30 lat 1
	 connected to router 316 using link 7509 at outport 31 lat 1
	 connected to router 317 using link 7510 at outport 32 lat 1
	 connected to router 318 using link 7511 at outport 33 lat 1
router 313
	 connected to router 17 using link 7512 at outport 10 lat 1
	 connected to router 46 using link 7513 at outport 11 lat 1
	 connected to router 75 using link 7514 at outport 12 lat 1
	 connected to router 104 using link 7515 at outport 13 lat 1
	 connected to router 133 using link 7516 at outport 14 lat 1
	 connected to router 162 using link 7517 at outport 15 lat 1
	 connected to router 191 using link 7518 at outport 16 lat 1
	 connected to router 220 using link 7519 at outport 17 lat 1
	 connected to router 249 using link 7520 at outport 18 lat 1
	 connected to router 278 using link 7521 at outport 19 lat 1
	 connected to router 290 using link 7522 at outport 20 lat 1
	 connected to router 291 using link 7523 at outport 21 lat 1
	 connected to router 293 using link 7524 at outport 22 lat 1
	 connected to router 297 using link 7525 at outport 23 lat 1
	 connected to router 300 using link 7526 at outport 24 lat 1
	 connected to router 304 using link 7527 at outport 25 lat 1
	 connected to router 306 using link 7528 at outport 26 lat 1
	 connected to router 307 using link 7529 at outport 27 lat 1
	 connected to router 308 using link 7530 at outport 28 lat 1
	 connected to router 309 using link 7531 at outport 29 lat 1
	 connected to router 312 using link 7532 at outport 30 lat 1
	 connected to router 314 using link 7533 at outport 31 lat 1
	 connected to router 317 using link 7534 at outport 32 lat 1
	 connected to router 318 using link 7535 at outport 33 lat 1
router 314
	 connected to router 19 using link 7536 at outport 10 lat 1
	 connected to router 48 using link 7537 at outport 11 lat 1
	 connected to router 77 using link 7538 at outport 12 lat 1
	 connected to router 106 using link 7539 at outport 13 lat 1
	 connected to router 135 using link 7540 at outport 14 lat 1
	 connected to router 164 using link 7541 at outport 15 lat 1
	 connected to router 193 using link 7542 at outport 16 lat 1
	 connected to router 222 using link 7543 at outport 17 lat 1
	 connected to router 251 using link 7544 at outport 18 lat 1
	 connected to router 280 using link 7545 at outport 19 lat 1
	 connected to router 290 using link 7546 at outport 20 lat 1
	 connected to router 291 using link 7547 at outport 21 lat 1
	 connected to router 292 using link 7548 at outport 22 lat 1
	 connected to router 294 using link 7549 at outport 23 lat 1
	 connected to router 298 using link 7550 at outport 24 lat 1
	 connected to router 301 using link 7551 at outport 25 lat 1
	 connected to router 305 using link 7552 at outport 26 lat 1
	 connected to router 307 using link 7553 at outport 27 lat 1
	 connected to router 308 using link 7554 at outport 28 lat 1
	 connected to router 309 using link 7555 at outport 29 lat 1
	 connected to router 310 using link 7556 at outport 30 lat 1
	 connected to router 313 using link 7557 at outport 31 lat 1
	 connected to router 315 using link 7558 at outport 32 lat 1
	 connected to router 318 using link 7559 at outport 33 lat 1
router 315
	 connected to router 21 using link 7560 at outport 10 lat 1
	 connected to router 50 using link 7561 at outport 11 lat 1
	 connected to router 79 using link 7562 at outport 12 lat 1
	 connected to router 108 using link 7563 at outport 13 lat 1
	 connected to router 137 using link 7564 at outport 14 lat 1
	 connected to router 166 using link 7565 at outport 15 lat 1
	 connected to router 195 using link 7566 at outport 16 lat 1
	 connected to router 224 using link 7567 at outport 17 lat 1
	 connected to router 253 using link 7568 at outport 18 lat 1
	 connected to router 282 using link 7569 at outport 19 lat 1
	 connected to router 290 using link 7570 at outport 20 lat 1
	 connected to router 291 using link 7571 at outport 21 lat 1
	 connected to router 292 using link 7572 at outport 22 lat 1
	 connected to router 293 using link 7573 at outport 23 lat 1
	 connected to router 295 using link 7574 at outport 24 lat 1
	 connected to router 299 using link 7575 at outport 25 lat 1
	 connected to router 302 using link 7576 at outport 26 lat 1
	 connected to router 306 using link 7577 at outport 27 lat 1
	 connected to router 308 using link 7578 at outport 28 lat 1
	 connected to router 309 using link 7579 at outport 29 lat 1
	 connected to router 310 using link 7580 at outport 30 lat 1
	 connected to router 311 using link 7581 at outport 31 lat 1
	 connected to router 314 using link 7582 at outport 32 lat 1
	 connected to router 316 using link 7583 at outport 33 lat 1
router 316
	 connected to router 23 using link 7584 at outport 10 lat 1
	 connected to router 52 using link 7585 at outport 11 lat 1
	 connected to router 81 using link 7586 at outport 12 lat 1
	 connected to router 110 using link 7587 at outport 13 lat 1
	 connected to router 139 using link 7588 at outport 14 lat 1
	 connected to router 168 using link 7589 at outport 15 lat 1
	 connected to router 197 using link 7590 at outport 16 lat 1
	 connected to router 226 using link 7591 at outport 17 lat 1
	 connected to router 255 using link 7592 at outport 18 lat 1
	 connected to router 284 using link 7593 at outport 19 lat 1
	 connected to router 291 using link 7594 at outport 20 lat 1
	 connected to router 292 using link 7595 at outport 21 lat 1
	 connected to router 293 using link 7596 at outport 22 lat 1
	 connected to router 294 using link 7597 at outport 23 lat 1
	 connected to router 296 using link 7598 at outport 24 lat 1
	 connected to router 300 using link 7599 at outport 25 lat 1
	 connected to router 303 using link 7600 at outport 26 lat 1
	 connected to router 307 using link 7601 at outport 27 lat 1
	 connected to router 309 using link 7602 at outport 28 lat 1
	 connected to router 310 using link 7603 at outport 29 lat 1
	 connected to router 311 using link 7604 at outport 30 lat 1
	 connected to router 312 using link 7605 at outport 31 lat 1
	 connected to router 315 using link 7606 at outport 32 lat 1
	 connected to router 317 using link 7607 at outport 33 lat 1
router 317
	 connected to router 25 using link 7608 at outport 10 lat 1
	 connected to router 54 using link 7609 at outport 11 lat 1
	 connected to router 83 using link 7610 at outport 12 lat 1
	 connected to router 112 using link 7611 at outport 13 lat 1
	 connected to router 141 using link 7612 at outport 14 lat 1
	 connected to router 170 using link 7613 at outport 15 lat 1
	 connected to router 199 using link 7614 at outport 16 lat 1
	 connected to router 228 using link 7615 at outport 17 lat 1
	 connected to router 257 using link 7616 at outport 18 lat 1
	 connected to router 286 using link 7617 at outport 19 lat 1
	 connected to router 292 using link 7618 at outport 20 lat 1
	 connected to router 293 using link 7619 at outport 21 lat 1
	 connected to router 294 using link 7620 at outport 22 lat 1
	 connected to router 295 using link 7621 at outport 23 lat 1
	 connected to router 297 using link 7622 at outport 24 lat 1
	 connected to router 301 using link 7623 at outport 25 lat 1
	 connected to router 304 using link 7624 at outport 26 lat 1
	 connected to router 308 using link 7625 at outport 27 lat 1
	 connected to router 310 using link 7626 at outport 28 lat 1
	 connected to router 311 using link 7627 at outport 29 lat 1
	 connected to router 312 using link 7628 at outport 30 lat 1
	 connected to router 313 using link 7629 at outport 31 lat 1
	 connected to router 316 using link 7630 at outport 32 lat 1
	 connected to router 318 using link 7631 at outport 33 lat 1
router 318
	 connected to router 27 using link 7632 at outport 10 lat 1
	 connected to router 56 using link 7633 at outport 11 lat 1
	 connected to router 85 using link 7634 at outport 12 lat 1
	 connected to router 114 using link 7635 at outport 13 lat 1
	 connected to router 143 using link 7636 at outport 14 lat 1
	 connected to router 172 using link 7637 at outport 15 lat 1
	 connected to router 201 using link 7638 at outport 16 lat 1
	 connected to router 230 using link 7639 at outport 17 lat 1
	 connected to router 259 using link 7640 at outport 18 lat 1
	 connected to router 288 using link 7641 at outport 19 lat 1
	 connected to router 290 using link 7642 at outport 20 lat 1
	 connected to router 293 using link 7643 at outport 21 lat 1
	 connected to router 294 using link 7644 at outport 22 lat 1
	 connected to router 295 using link 7645 at outport 23 lat 1
	 connected to router 296 using link 7646 at outport 24 lat 1
	 connected to router 298 using link 7647 at outport 25 lat 1
	 connected to router 302 using link 7648 at outport 26 lat 1
	 connected to router 305 using link 7649 at outport 27 lat 1
	 connected to router 309 using link 7650 at outport 28 lat 1
	 connected to router 311 using link 7651 at outport 29 lat 1
	 connected to router 312 using link 7652 at outport 30 lat 1
	 connected to router 313 using link 7653 at outport 31 lat 1
	 connected to router 314 using link 7654 at outport 32 lat 1
	 connected to router 317 using link 7655 at outport 33 lat 1
========================== Routing table  =====================
Class 0:
Packet latency average = 566.308
	minimum = 6
	maximum = 1740
Network latency average = 566.308
	minimum = 6
	maximum = 1740
Slowest packet = 20526762
Flit latency average = 566.308
	minimum = 6
	maximum = 1740
Slowest flit = 20526762
Fragmentation average = 0
	minimum = 0
	maximum = 0
Injected packet rate average = 0.799993
	minimum = 0.7844 (at node 2662)
	maximum = 0.8135 (at node 909)
Accepted packet rate average = 0.718957
	minimum = 0.6901 (at node 3032)
	maximum = 0.7501 (at node 2214)
Injected flit rate average = 0.799993
	minimum = 0.7844 (at node 2662)
	maximum = 0.8135 (at node 909)
Accepted flit rate average= 0.718957
	minimum = 0.6901 (at node 3032)
	maximum = 0.7501 (at node 2214)
Injected packet length average = 1
Accepted packet length average = 1
Total in-flight flits = 2585057 (0 measured)
latency change    = 1
throughput change = 1
Average latency for class 0 exceeded 500 cycles. Aborting simulation.
Too many sample periods needed to converge
Simulation unstable, ending ...
Total run time 647.65
